file 356856 1590598012                                          
version 2
run Completa-0-20200527-18:46:34-4615
attr configname Completa
attr datetime 20200527-18:46:34
attr experiment Completa
attr inifile omnetpp.ini
attr iterationvars ""
attr iterationvarsf ""
attr measurement ""
attr network Network
attr processid 4615
attr repetition 0
attr replication #0
attr resultdir results
attr runnumber 0
attr seedset 0
param **.num_tx 11
param **.num_frw 8
param **.rx.mobility.initialZ 0m
param **.frw[*].mobility.initialZ 0m
param **.tx[*].mobility.initialZ 0m
param **.rx.mobility.initialX 470m
param **.rx.mobility.initialY 200m
param **.frw[0].mobility.initialX 450m
param **.frw[0].mobility.initialY 200m
param **.frw[1].mobility.initialX 450m
param **.frw[1].mobility.initialY 300m
param **.frw[2].mobility.initialX 550m
param **.frw[2].mobility.initialY 200m
param **.frw[3].mobility.initialX 550m
param **.frw[3].mobility.initialY 300m
param **.frw[4].mobility.initialX 380m
param **.frw[4].mobility.initialY 130m
param **.frw[5].mobility.initialX 610m
param **.frw[5].mobility.initialY 130m
param **.frw[6].mobility.initialX 610m
param **.frw[6].mobility.initialY 360m
param **.frw[7].mobility.initialX 380m
param **.frw[7].mobility.initialY 360m
param **.rx.mobility.typename "\"StationaryMobility\""
param **.rx.mobility.initFromDisplayString false
param **.frw[*].mobility.typename "\"StationaryMobility\""
param **.frw[*].mobility.initFromDisplayString false
param **.tx[*].mobility.typename "\"MassMobility\""
param **.tx[*].mobility.initFromDisplayString false
param **.tx[*].mobility.changeInterval "truncnormal(2s, 0.5s)"
param **.tx[*].mobility.angleDelta "normal(0deg, 30deg)"
param **.tx[*].mobility.speed "truncnormal(20mps, 8mps)"
param **.tx[*].mobility.updateInterval 100ms
param **.tx[6].generic.nextHop.nextHopConfig "\"frw[1].wlan[0]\""
param **.tx[3].generic.nextHop.nextHopConfig "\"frw[4].wlan[0]\""
param **.tx[7].generic.nextHop.nextHopConfig "\"frw[4].wlan[0]\""
param **.tx[8].generic.nextHop.nextHopConfig "\"frw[4].wlan[0]\""
param **.tx[4].generic.nextHop.nextHopConfig "\"frw[5].wlan[0]\""
param **.tx[9].generic.nextHop.nextHopConfig "\"frw[5].wlan[0]\""
param **.tx[10].generic.nextHop.nextHopConfig "\"frw[6].wlan[0]\""
param **.tx[0].generic.nextHop.nextHopConfig "\"frw[7].wlan[0]\""
param **.tx[2].generic.nextHop.nextHopConfig "\"frw[7].wlan[0]\""
param **.tx[1].generic.nextHop.nextHopConfig "\"frw[7].wlan[0]\""
param **.tx[5].generic.nextHop.nextHopConfig "\"frw[7].wlan[0]\""
param **.frw[0..3].generic.nextHop.nextHopConfig "\"rx.wlan[0]\""
param **.frw[4].generic.nextHop.nextHopConfig "\"frw[0].wlan[0]\""
param **.frw[5].generic.nextHop.nextHopConfig "\"frw[2].wlan[0]\""
param **.frw[6].generic.nextHop.nextHopConfig "\"frw[3].wlan[0]\""
param **.frw[7].generic.nextHop.nextHopConfig "\"frw[4].wlan[0]\""
param **.rx.generic.nextHop.nextHopConfig "\"null\""
param **.constraintAreaMaxX 700m
param **.constraintAreaMaxY 700m
param **.constraintAreaMaxZ 0m
param **.constraintAreaMinX 0m
param **.constraintAreaMinY 0m
param **.constraintAreaMinZ 0m
param **.radioMedium.pathLoss.typename "\"LogNormalShadowing\""
param **.radioMedium.pathLoss.alpha 3
param **.radioMedium.pathLoss.sigma 7
param **.numApps 1
param **.rx.app[0].typename "\"UdpSink\""
param **.rx.app[0].localPort 2345
param **.frw[*].app[0].typename "\"UdpSink\""
param **.frw[*].app[0].localPort 2345
param **.tx[*].app[0].typename "\"UdpBasicApp\""
param **.tx[*].app[0].destPort 2345
param **.tx[*].app[0].destAddresses "\"rx\""
param **.tx[*].app[0].messageLength 100B
param **.tx[*].app[0].startTime "uniform(0s, 10ms)"
param **.tx[*].app[0].sendInterval 100ms
param **.tx[*].app[0].packetName "\"Data\""
param **.networkConfiguratorModule "\"networkConfigurator\""
param **.networkConfigurator.config "xmldoc(\"scenario.xml\")"
param **.tx[*].hasIpv4 false
param **.tx[*].hasIpv6 false
param **.tx[*].hasGn true
param **.tx[*].generic.typename "\"NextHopNetworkLayer\""
param **.tx[*].generic.nextHop.hopLimit 4
param **.frw[*].hasIpv4 false
param **.frw[*].hasIpv6 false
param **.frw[*].hasGn true
param **.frw[*].generic.typename "\"NextHopNetworkLayer\""
param **.frw[*].generic.nextHop.hopLimit 4
param **.rx.hasIpv4 false
param **.rx.hasIpv6 false
param **.rx.hasGn true
param **.rx.generic.typename "\"NextHopNetworkLayer\""
param **.networkConfigurator.typename "\"NextHopNetworkConfigurator\""
param *.tx[*].wlan[2].radio.displayCommunicationRange true
param *.visualizer.sceneVisualizer.descriptionFigure "\"title\""
param *.visualizer.mediumVisualizer.displaySignals true
param *.visualizer.physicalLinkVisualizer.displayLinks true
param *.tx[*].wlan[0].radio.transmitter.communicationRange 500m
param *.tx[*].wlan[0].radio.displayCommunicationRange true

vector 0 Network.tx[0].wlan[0].radio radioMode:vector ETV
attr interpolationmode sample-hold
attr source radioModeChanged
attr title "Radio mode, vector"
vector 1 Network.tx[0].wlan[0].radio radioChannel:vector ETV
attr interpolationmode sample-hold
attr source radioChannelChanged
attr title "Radio channel, vector"
vector 2 Network.tx[1].wlan[0].radio radioMode:vector ETV
attr interpolationmode sample-hold
attr source radioModeChanged
attr title "Radio mode, vector"
vector 3 Network.tx[1].wlan[0].radio radioChannel:vector ETV
attr interpolationmode sample-hold
attr source radioChannelChanged
attr title "Radio channel, vector"
vector 4 Network.tx[2].wlan[0].radio radioMode:vector ETV
attr interpolationmode sample-hold
attr source radioModeChanged
attr title "Radio mode, vector"
vector 5 Network.tx[2].wlan[0].radio radioChannel:vector ETV
attr interpolationmode sample-hold
attr source radioChannelChanged
attr title "Radio channel, vector"
vector 6 Network.tx[3].wlan[0].radio radioMode:vector ETV
attr interpolationmode sample-hold
attr source radioModeChanged
attr title "Radio mode, vector"
vector 7 Network.tx[3].wlan[0].radio radioChannel:vector ETV
attr interpolationmode sample-hold
attr source radioChannelChanged
attr title "Radio channel, vector"
vector 8 Network.tx[4].wlan[0].radio radioMode:vector ETV
attr interpolationmode sample-hold
attr source radioModeChanged
attr title "Radio mode, vector"
vector 9 Network.tx[4].wlan[0].radio radioChannel:vector ETV
attr interpolationmode sample-hold
attr source radioChannelChanged
attr title "Radio channel, vector"
vector 10 Network.tx[5].wlan[0].radio radioMode:vector ETV
attr interpolationmode sample-hold
attr source radioModeChanged
attr title "Radio mode, vector"
vector 11 Network.tx[5].wlan[0].radio radioChannel:vector ETV
attr interpolationmode sample-hold
attr source radioChannelChanged
attr title "Radio channel, vector"
vector 12 Network.tx[6].wlan[0].radio radioMode:vector ETV
attr interpolationmode sample-hold
attr source radioModeChanged
attr title "Radio mode, vector"
vector 13 Network.tx[6].wlan[0].radio radioChannel:vector ETV
attr interpolationmode sample-hold
attr source radioChannelChanged
attr title "Radio channel, vector"
vector 14 Network.tx[7].wlan[0].radio radioMode:vector ETV
attr interpolationmode sample-hold
attr source radioModeChanged
attr title "Radio mode, vector"
vector 15 Network.tx[7].wlan[0].radio radioChannel:vector ETV
attr interpolationmode sample-hold
attr source radioChannelChanged
attr title "Radio channel, vector"
vector 16 Network.tx[8].wlan[0].radio radioMode:vector ETV
attr interpolationmode sample-hold
attr source radioModeChanged
attr title "Radio mode, vector"
vector 17 Network.tx[8].wlan[0].radio radioChannel:vector ETV
attr interpolationmode sample-hold
attr source radioChannelChanged
attr title "Radio channel, vector"
vector 18 Network.tx[9].wlan[0].radio radioMode:vector ETV
attr interpolationmode sample-hold
attr source radioModeChanged
attr title "Radio mode, vector"
vector 19 Network.tx[9].wlan[0].radio radioChannel:vector ETV
attr interpolationmode sample-hold
attr source radioChannelChanged
attr title "Radio channel, vector"
vector 20 Network.tx[10].wlan[0].radio radioMode:vector ETV
attr interpolationmode sample-hold
attr source radioModeChanged
attr title "Radio mode, vector"
vector 21 Network.tx[10].wlan[0].radio radioChannel:vector ETV
attr interpolationmode sample-hold
attr source radioChannelChanged
attr title "Radio channel, vector"
vector 22 Network.rx.wlan[0].radio radioMode:vector ETV
attr interpolationmode sample-hold
attr source radioModeChanged
attr title "Radio mode, vector"
vector 23 Network.rx.wlan[0].radio radioChannel:vector ETV
attr interpolationmode sample-hold
attr source radioChannelChanged
attr title "Radio channel, vector"
vector 24 Network.frw[0].wlan[0].radio radioMode:vector ETV
attr interpolationmode sample-hold
attr source radioModeChanged
attr title "Radio mode, vector"
vector 25 Network.frw[0].wlan[0].radio radioChannel:vector ETV
attr interpolationmode sample-hold
attr source radioChannelChanged
attr title "Radio channel, vector"
vector 26 Network.frw[1].wlan[0].radio radioMode:vector ETV
attr interpolationmode sample-hold
attr source radioModeChanged
attr title "Radio mode, vector"
vector 27 Network.frw[1].wlan[0].radio radioChannel:vector ETV
attr interpolationmode sample-hold
attr source radioChannelChanged
attr title "Radio channel, vector"
vector 28 Network.frw[2].wlan[0].radio radioMode:vector ETV
attr interpolationmode sample-hold
attr source radioModeChanged
attr title "Radio mode, vector"
vector 29 Network.frw[2].wlan[0].radio radioChannel:vector ETV
attr interpolationmode sample-hold
attr source radioChannelChanged
attr title "Radio channel, vector"
vector 30 Network.frw[3].wlan[0].radio radioMode:vector ETV
attr interpolationmode sample-hold
attr source radioModeChanged
attr title "Radio mode, vector"
vector 31 Network.frw[3].wlan[0].radio radioChannel:vector ETV
attr interpolationmode sample-hold
attr source radioChannelChanged
attr title "Radio channel, vector"
vector 32 Network.frw[4].wlan[0].radio radioMode:vector ETV
attr interpolationmode sample-hold
attr source radioModeChanged
attr title "Radio mode, vector"
vector 33 Network.frw[4].wlan[0].radio radioChannel:vector ETV
attr interpolationmode sample-hold
attr source radioChannelChanged
attr title "Radio channel, vector"
vector 34 Network.frw[5].wlan[0].radio radioMode:vector ETV
attr interpolationmode sample-hold
attr source radioModeChanged
attr title "Radio mode, vector"
vector 35 Network.frw[5].wlan[0].radio radioChannel:vector ETV
attr interpolationmode sample-hold
attr source radioChannelChanged
attr title "Radio channel, vector"
vector 36 Network.frw[6].wlan[0].radio radioMode:vector ETV
attr interpolationmode sample-hold
attr source radioModeChanged
attr title "Radio mode, vector"
vector 37 Network.frw[6].wlan[0].radio radioChannel:vector ETV
attr interpolationmode sample-hold
attr source radioChannelChanged
attr title "Radio channel, vector"
vector 38 Network.frw[7].wlan[0].radio radioMode:vector ETV
attr interpolationmode sample-hold
attr source radioModeChanged
attr title "Radio mode, vector"
vector 39 Network.frw[7].wlan[0].radio radioChannel:vector ETV
attr interpolationmode sample-hold
attr source radioChannelChanged
attr title "Radio channel, vector"
vector 40 Network.tx[0].wlan[0].radio receptionState:vector ETV
attr interpolationmode sample-hold
attr source receptionStateChanged
attr title "Radio reception state, vector"
vector 41 Network.tx[1].wlan[0].radio receptionState:vector ETV
attr interpolationmode sample-hold
attr source receptionStateChanged
attr title "Radio reception state, vector"
vector 42 Network.tx[2].wlan[0].radio receptionState:vector ETV
attr interpolationmode sample-hold
attr source receptionStateChanged
attr title "Radio reception state, vector"
vector 43 Network.tx[3].wlan[0].radio receptionState:vector ETV
attr interpolationmode sample-hold
attr source receptionStateChanged
attr title "Radio reception state, vector"
vector 44 Network.tx[4].wlan[0].radio receptionState:vector ETV
attr interpolationmode sample-hold
attr source receptionStateChanged
attr title "Radio reception state, vector"
vector 45 Network.tx[5].wlan[0].radio receptionState:vector ETV
attr interpolationmode sample-hold
attr source receptionStateChanged
attr title "Radio reception state, vector"
vector 46 Network.tx[6].wlan[0].radio receptionState:vector ETV
attr interpolationmode sample-hold
attr source receptionStateChanged
attr title "Radio reception state, vector"
vector 47 Network.tx[7].wlan[0].radio receptionState:vector ETV
attr interpolationmode sample-hold
attr source receptionStateChanged
attr title "Radio reception state, vector"
vector 48 Network.tx[8].wlan[0].radio receptionState:vector ETV
attr interpolationmode sample-hold
attr source receptionStateChanged
attr title "Radio reception state, vector"
vector 49 Network.tx[9].wlan[0].radio receptionState:vector ETV
attr interpolationmode sample-hold
attr source receptionStateChanged
attr title "Radio reception state, vector"
vector 50 Network.tx[10].wlan[0].radio receptionState:vector ETV
attr interpolationmode sample-hold
attr source receptionStateChanged
attr title "Radio reception state, vector"
vector 51 Network.rx.wlan[0].radio receptionState:vector ETV
attr interpolationmode sample-hold
attr source receptionStateChanged
attr title "Radio reception state, vector"
vector 52 Network.frw[0].wlan[0].radio receptionState:vector ETV
attr interpolationmode sample-hold
attr source receptionStateChanged
attr title "Radio reception state, vector"
vector 53 Network.frw[1].wlan[0].radio receptionState:vector ETV
attr interpolationmode sample-hold
attr source receptionStateChanged
attr title "Radio reception state, vector"
vector 54 Network.frw[2].wlan[0].radio receptionState:vector ETV
attr interpolationmode sample-hold
attr source receptionStateChanged
attr title "Radio reception state, vector"
vector 55 Network.frw[3].wlan[0].radio receptionState:vector ETV
attr interpolationmode sample-hold
attr source receptionStateChanged
attr title "Radio reception state, vector"
vector 56 Network.frw[4].wlan[0].radio receptionState:vector ETV
attr interpolationmode sample-hold
attr source receptionStateChanged
attr title "Radio reception state, vector"
vector 57 Network.frw[5].wlan[0].radio receptionState:vector ETV
attr interpolationmode sample-hold
attr source receptionStateChanged
attr title "Radio reception state, vector"
vector 58 Network.frw[6].wlan[0].radio receptionState:vector ETV
attr interpolationmode sample-hold
attr source receptionStateChanged
attr title "Radio reception state, vector"
vector 59 Network.frw[7].wlan[0].radio receptionState:vector ETV
attr interpolationmode sample-hold
attr source receptionStateChanged
attr title "Radio reception state, vector"
vector 60 Network.tx[0].wlan[0].mac.dcf.recoveryProcedure contentionWindowChanged:vector ETV
attr interpolationmode sample-hold
attr title "contention window, vector"
vector 61 Network.tx[1].wlan[0].mac.dcf.recoveryProcedure contentionWindowChanged:vector ETV
attr interpolationmode sample-hold
attr title "contention window, vector"
vector 62 Network.tx[2].wlan[0].mac.dcf.recoveryProcedure contentionWindowChanged:vector ETV
attr interpolationmode sample-hold
attr title "contention window, vector"
vector 63 Network.tx[3].wlan[0].mac.dcf.recoveryProcedure contentionWindowChanged:vector ETV
attr interpolationmode sample-hold
attr title "contention window, vector"
vector 64 Network.tx[4].wlan[0].mac.dcf.recoveryProcedure contentionWindowChanged:vector ETV
attr interpolationmode sample-hold
attr title "contention window, vector"
vector 65 Network.tx[5].wlan[0].mac.dcf.recoveryProcedure contentionWindowChanged:vector ETV
attr interpolationmode sample-hold
attr title "contention window, vector"
vector 66 Network.tx[6].wlan[0].mac.dcf.recoveryProcedure contentionWindowChanged:vector ETV
attr interpolationmode sample-hold
attr title "contention window, vector"
vector 67 Network.tx[7].wlan[0].mac.dcf.recoveryProcedure contentionWindowChanged:vector ETV
attr interpolationmode sample-hold
attr title "contention window, vector"
vector 68 Network.tx[8].wlan[0].mac.dcf.recoveryProcedure contentionWindowChanged:vector ETV
attr interpolationmode sample-hold
attr title "contention window, vector"
vector 69 Network.tx[9].wlan[0].mac.dcf.recoveryProcedure contentionWindowChanged:vector ETV
attr interpolationmode sample-hold
attr title "contention window, vector"
vector 70 Network.tx[10].wlan[0].mac.dcf.recoveryProcedure contentionWindowChanged:vector ETV
attr interpolationmode sample-hold
attr title "contention window, vector"
vector 71 Network.rx.wlan[0].mac.dcf.recoveryProcedure contentionWindowChanged:vector ETV
attr interpolationmode sample-hold
attr title "contention window, vector"
vector 72 Network.frw[0].wlan[0].mac.dcf.recoveryProcedure contentionWindowChanged:vector ETV
attr interpolationmode sample-hold
attr title "contention window, vector"
vector 73 Network.frw[1].wlan[0].mac.dcf.recoveryProcedure contentionWindowChanged:vector ETV
attr interpolationmode sample-hold
attr title "contention window, vector"
vector 74 Network.frw[2].wlan[0].mac.dcf.recoveryProcedure contentionWindowChanged:vector ETV
attr interpolationmode sample-hold
attr title "contention window, vector"
vector 75 Network.frw[3].wlan[0].mac.dcf.recoveryProcedure contentionWindowChanged:vector ETV
attr interpolationmode sample-hold
attr title "contention window, vector"
vector 76 Network.frw[4].wlan[0].mac.dcf.recoveryProcedure contentionWindowChanged:vector ETV
attr interpolationmode sample-hold
attr title "contention window, vector"
vector 77 Network.frw[5].wlan[0].mac.dcf.recoveryProcedure contentionWindowChanged:vector ETV
attr interpolationmode sample-hold
attr title "contention window, vector"
vector 78 Network.frw[6].wlan[0].mac.dcf.recoveryProcedure contentionWindowChanged:vector ETV
attr interpolationmode sample-hold
attr title "contention window, vector"
vector 79 Network.frw[7].wlan[0].mac.dcf.recoveryProcedure contentionWindowChanged:vector ETV
attr interpolationmode sample-hold
attr title "contention window, vector"
vector 80 Network.tx[3].app[0] packetSent:vector(packetBytes) ETV
attr interpolationmode none
attr source packetSent
attr title "packets sent, vector(packetBytes)"
vector 81 Network.tx[3].udp packetSent:vector(packetBytes) ETV
attr interpolationmode none
attr source packetSent
attr title "packets sent, vector(packetBytes)"
vector 82 Network.tx[3].wlan[0].mac packetReceivedFromUpper:vector(packetBytes) ETV
attr interpolationmode none
attr title "packets received from upper layer, vector(packetBytes)"
vector 83 Network.tx[3].wlan[0].mac.dcf.channelAccess.pendingQueue packetPushed:vector(packetBytes) ETV
attr interpolationmode none
attr title "packet pushed, vector(packetBytes)"
vector 84 Network.tx[3].wlan[0].mac.dcf.channelAccess.pendingQueue queueLength:vector ETV
attr interpolationmode sample-hold
attr source "count(packetPushed) - count(packetPopped) - count(packetRemoved) - count(packetDropped)"
attr title "queue length, vector"
vector 85 Network.tx[3].wlan[0].mac.dcf.channelAccess.contention backoffPeriodGenerated:vector ETV
attr interpolationmode none
attr title "backoff periods, vector"
vector 86 Network.tx[3].wlan[0].mac.dcf.channelAccess.contention backoffActive:vector ETV
attr interpolationmode sample-hold
attr source count(backoffStarted)-count(backoffStopped)
attr title "backoff active, vector"
vector 87 Network.tx[3].wlan[0].mac.dcf.channelAccess.pendingQueue packetPopped:vector(packetBytes) ETV
attr interpolationmode none
attr title "packet popped, vector(packetBytes)"
vector 88 Network.tx[3].wlan[0].mac.dcf.channelAccess.pendingQueue queueingTime:vector ETV
attr interpolationmode none
attr source queueingTime(packetPopped)
attr title "queueing times, vector"
attr unit s
vector 89 Network.tx[3].wlan[0].mac.dcf.channelAccess.inProgressFrames queueLength:vector ETV
attr interpolationmode sample-hold
attr source "count(packetEnqueued) - count(packetDequeued)"
attr title "queue length, vector"
vector 90 Network.tx[3].wlan[0].mac.dcf datarateSelected:vector ETV
attr interpolationmode none
attr title "datarates selected, vector"
vector 91 Network.tx[3].wlan[0].mac packetSentToLower:vector(packetBytes) ETV
attr interpolationmode none
attr title "packets sent to lower layer, vector(packetBytes)"
vector 92 Network.tx[3].wlan[0].mac.dcf frameSequenceActive:vector ETV
attr interpolationmode sample-hold
attr source count(frameSequenceStarted)-count(frameSequenceFinished)
attr title "frame sequence active, vector"
vector 93 Network.tx[3].wlan[0].radio transmissionState:vector ETV
attr interpolationmode sample-hold
attr source transmissionStateChanged
attr title "Radio transmission state, vector"
vector 94 Network.tx[3].wlan[0].mac.dcf packetSentToPeer:vector(packetBytes) ETV
attr interpolationmode none
attr title "packets sent, vector(packetBytes)"
vector 95 Network.tx[3].wlan[0].mac.dcf packetSentToPeerUnicast:vector(packetBytes) ETV
attr interpolationmode none
attr source ieee80211Unicast(packetSentToPeer)
attr title "packets sent: unicast, vector(packetBytes)"
vector 96 Network.tx[3].wlan[0].mac.dcf packetSentToPeerWithoutRetry:vector(packetBytes) ETV
attr interpolationmode none
attr source ieee80211NotRetry(packetSentToPeer)
attr title "packets sent: without retry, vector(packetBytes)"
vector 97 Network.tx[3].wlan[0].mac.rx nav:vector ETV
attr interpolationmode linear
attr source navChanged
attr title "network allocation vector, vector"
vector 98 Network.frw[4].wlan[0].mac packetReceivedFromLower:vector(packetBytes) ETV
attr interpolationmode none
attr title "packets received from lower layer, vector(packetBytes)"
vector 99 Network.frw[4].wlan[0].mac.dcf packetReceivedFromPeer:vector(packetBytes) ETV
attr interpolationmode none
attr title "packets received, vector(packetBytes)"
vector 100 Network.frw[4].wlan[0].mac.dcf packetReceivedFromPeerUnicast:vector(packetBytes) ETV
attr interpolationmode none
attr source ieee80211Unicast(packetReceivedFromPeer)
attr title "packets received: unicast, vector(packetBytes)"
vector 101 Network.frw[4].wlan[0].mac.dcf packetReceivedFromPeerWithoutRetry:vector(packetBytes) ETV
attr interpolationmode none
attr source ieee80211NotRetry(packetReceivedFromPeer)
attr title "packets received: without retry, vector(packetBytes)"
vector 102 Network.frw[4].wlan[0].mac.dcf datarateSelected:vector ETV
attr interpolationmode none
attr title "datarates selected, vector"
vector 103 Network.frw[4].wlan[0].mac packetSentToUpper:vector(packetBytes) ETV
attr interpolationmode none
attr title "packets sent to upper layer, vector(packetBytes)"
vector 104 Network.frw[4].wlan[0].mac packetReceivedFromUpper:vector(packetBytes) ETV
attr interpolationmode none
attr title "packets received from upper layer, vector(packetBytes)"
vector 105 Network.frw[4].wlan[0].mac.dcf.channelAccess.pendingQueue packetPushed:vector(packetBytes) ETV
attr interpolationmode none
attr title "packet pushed, vector(packetBytes)"
vector 106 Network.frw[4].wlan[0].mac.dcf.channelAccess.pendingQueue queueLength:vector ETV
attr interpolationmode sample-hold
attr source "count(packetPushed) - count(packetPopped) - count(packetRemoved) - count(packetDropped)"
attr title "queue length, vector"
vector 107 Network.frw[4].wlan[0].mac.dcf.channelAccess.contention backoffPeriodGenerated:vector ETV
attr interpolationmode none
attr title "backoff periods, vector"
vector 108 Network.frw[4].wlan[0].mac.dcf.channelAccess.contention backoffActive:vector ETV
attr interpolationmode sample-hold
attr source count(backoffStarted)-count(backoffStopped)
attr title "backoff active, vector"
vector 109 Network.tx[6].wlan[0].mac packetReceivedFromLower:vector(packetBytes) ETV
attr interpolationmode none
attr title "packets received from lower layer, vector(packetBytes)"
vector 110 Network.tx[6].wlan[0].mac.rx nav:vector ETV
attr interpolationmode linear
attr source navChanged
attr title "network allocation vector, vector"
vector 111 Network.tx[6].wlan[0].mac.dcf packetDrop:vector(packetBytes) ETV
attr interpolationmode none
attr source packetDropped
attr title "packet drops, vector(packetBytes)"
vector 112 Network.tx[6].wlan[0].mac.dcf packetDropNotAddressedToUs:vector(packetBytes) ETV
attr interpolationmode none
attr source packetDropReasonIsNotAddressedToUs(packetDropped)
attr title "packet drops: not addressed to us, vector(packetBytes)"
vector 113 Network.tx[6].wlan[0].mac packetDrop:vector(packetBytes) ETV
attr interpolationmode none
attr source packetDropped
attr title "packet drops, vector(packetBytes)"
vector 114 Network.tx[6].wlan[0].mac packetDropNotAddressedToUs:vector(packetBytes) ETV
attr interpolationmode none
attr source packetDropReasonIsNotAddressedToUs(packetDropped)
attr title "packet drops: not addressed to us, vector(packetBytes)"
vector 115 Network.frw[0].wlan[0].mac packetReceivedFromLower:vector(packetBytes) ETV
attr interpolationmode none
attr title "packets received from lower layer, vector(packetBytes)"
vector 116 Network.frw[0].wlan[0].mac.rx nav:vector ETV
attr interpolationmode linear
attr source navChanged
attr title "network allocation vector, vector"
vector 117 Network.frw[0].wlan[0].mac.dcf packetDrop:vector(packetBytes) ETV
attr interpolationmode none
attr source packetDropped
attr title "packet drops, vector(packetBytes)"
vector 118 Network.frw[0].wlan[0].mac.dcf packetDropNotAddressedToUs:vector(packetBytes) ETV
attr interpolationmode none
attr source packetDropReasonIsNotAddressedToUs(packetDropped)
attr title "packet drops: not addressed to us, vector(packetBytes)"
vector 119 Network.frw[0].wlan[0].mac packetDrop:vector(packetBytes) ETV
attr interpolationmode none
attr source packetDropped
attr title "packet drops, vector(packetBytes)"
vector 120 Network.frw[0].wlan[0].mac packetDropNotAddressedToUs:vector(packetBytes) ETV
attr interpolationmode none
attr source packetDropReasonIsNotAddressedToUs(packetDropped)
attr title "packet drops: not addressed to us, vector(packetBytes)"
vector 121 Network.frw[4].wlan[0].mac packetSentToLower:vector(packetBytes) ETV
attr interpolationmode none
attr title "packets sent to lower layer, vector(packetBytes)"
vector 122 Network.frw[4].wlan[0].radio transmissionState:vector ETV
attr interpolationmode sample-hold
attr source transmissionStateChanged
attr title "Radio transmission state, vector"
vector 123 Network.frw[4].wlan[0].mac.dcf packetSentToPeer:vector(packetBytes) ETV
attr interpolationmode none
attr title "packets sent, vector(packetBytes)"
vector 124 Network.frw[4].wlan[0].mac.dcf packetSentToPeerUnicast:vector(packetBytes) ETV
attr interpolationmode none
attr source ieee80211Unicast(packetSentToPeer)
attr title "packets sent: unicast, vector(packetBytes)"
vector 125 Network.frw[4].wlan[0].mac.dcf packetSentToPeerWithoutRetry:vector(packetBytes) ETV
attr interpolationmode none
attr source ieee80211NotRetry(packetSentToPeer)
attr title "packets sent: without retry, vector(packetBytes)"
vector 126 Network.frw[1].wlan[0].mac packetReceivedFromLower:vector(packetBytes) ETV
attr interpolationmode none
attr title "packets received from lower layer, vector(packetBytes)"
vector 127 Network.frw[1].wlan[0].mac.dcf packetDrop:vector(packetBytes) ETV
attr interpolationmode none
attr source packetDropped
attr title "packet drops, vector(packetBytes)"
vector 128 Network.frw[1].wlan[0].mac.dcf packetDropNotAddressedToUs:vector(packetBytes) ETV
attr interpolationmode none
attr source packetDropReasonIsNotAddressedToUs(packetDropped)
attr title "packet drops: not addressed to us, vector(packetBytes)"
vector 129 Network.frw[1].wlan[0].mac packetDrop:vector(packetBytes) ETV
attr interpolationmode none
attr source packetDropped
attr title "packet drops, vector(packetBytes)"
vector 130 Network.frw[1].wlan[0].mac packetDropNotAddressedToUs:vector(packetBytes) ETV
attr interpolationmode none
attr source packetDropReasonIsNotAddressedToUs(packetDropped)
attr title "packet drops: not addressed to us, vector(packetBytes)"
vector 131 Network.frw[4].wlan[0].mac.dcf.channelAccess.pendingQueue packetPopped:vector(packetBytes) ETV
attr interpolationmode none
attr title "packet popped, vector(packetBytes)"
vector 132 Network.frw[4].wlan[0].mac.dcf.channelAccess.pendingQueue queueingTime:vector ETV
attr interpolationmode none
attr source queueingTime(packetPopped)
attr title "queueing times, vector"
attr unit s
vector 133 Network.frw[4].wlan[0].mac.dcf.channelAccess.inProgressFrames queueLength:vector ETV
attr interpolationmode sample-hold
attr source "count(packetEnqueued) - count(packetDequeued)"
attr title "queue length, vector"
vector 134 Network.frw[4].wlan[0].mac.dcf frameSequenceActive:vector ETV
attr interpolationmode sample-hold
attr source count(frameSequenceStarted)-count(frameSequenceFinished)
attr title "frame sequence active, vector"
vector 135 Network.frw[4].wlan[0].mac.rx nav:vector ETV
attr interpolationmode linear
attr source navChanged
attr title "network allocation vector, vector"
vector 136 Network.frw[0].wlan[0].mac.dcf packetReceivedFromPeer:vector(packetBytes) ETV
attr interpolationmode none
attr title "packets received, vector(packetBytes)"
vector 137 Network.frw[0].wlan[0].mac.dcf packetReceivedFromPeerUnicast:vector(packetBytes) ETV
attr interpolationmode none
attr source ieee80211Unicast(packetReceivedFromPeer)
attr title "packets received: unicast, vector(packetBytes)"
vector 138 Network.frw[0].wlan[0].mac.dcf packetReceivedFromPeerWithoutRetry:vector(packetBytes) ETV
attr interpolationmode none
attr source ieee80211NotRetry(packetReceivedFromPeer)
attr title "packets received: without retry, vector(packetBytes)"
vector 139 Network.frw[0].wlan[0].mac.dcf datarateSelected:vector ETV
attr interpolationmode none
attr title "datarates selected, vector"
vector 140 Network.frw[0].wlan[0].mac packetSentToUpper:vector(packetBytes) ETV
attr interpolationmode none
attr title "packets sent to upper layer, vector(packetBytes)"
vector 141 Network.frw[0].wlan[0].mac packetReceivedFromUpper:vector(packetBytes) ETV
attr interpolationmode none
attr title "packets received from upper layer, vector(packetBytes)"
vector 142 Network.frw[0].wlan[0].mac.dcf.channelAccess.pendingQueue packetPushed:vector(packetBytes) ETV
attr interpolationmode none
attr title "packet pushed, vector(packetBytes)"
vector 143 Network.frw[0].wlan[0].mac.dcf.channelAccess.pendingQueue queueLength:vector ETV
attr interpolationmode sample-hold
attr source "count(packetPushed) - count(packetPopped) - count(packetRemoved) - count(packetDropped)"
attr title "queue length, vector"
vector 144 Network.frw[0].wlan[0].mac.dcf.channelAccess.contention backoffPeriodGenerated:vector ETV
attr interpolationmode none
attr title "backoff periods, vector"
vector 145 Network.frw[0].wlan[0].mac.dcf.channelAccess.contention backoffActive:vector ETV
attr interpolationmode sample-hold
attr source count(backoffStarted)-count(backoffStopped)
attr title "backoff active, vector"
vector 146 Network.tx[3].wlan[0].mac packetReceivedFromLower:vector(packetBytes) ETV
attr interpolationmode none
attr title "packets received from lower layer, vector(packetBytes)"
vector 147 Network.tx[3].wlan[0].mac.dcf packetDrop:vector(packetBytes) ETV
attr interpolationmode none
attr source packetDropped
attr title "packet drops, vector(packetBytes)"
vector 148 Network.tx[3].wlan[0].mac.dcf packetDropNotAddressedToUs:vector(packetBytes) ETV
attr interpolationmode none
attr source packetDropReasonIsNotAddressedToUs(packetDropped)
attr title "packet drops: not addressed to us, vector(packetBytes)"
vector 149 Network.tx[3].wlan[0].mac packetDrop:vector(packetBytes) ETV
attr interpolationmode none
attr source packetDropped
attr title "packet drops, vector(packetBytes)"
vector 150 Network.tx[3].wlan[0].mac packetDropNotAddressedToUs:vector(packetBytes) ETV
attr interpolationmode none
attr source packetDropReasonIsNotAddressedToUs(packetDropped)
attr title "packet drops: not addressed to us, vector(packetBytes)"
vector 151 Network.frw[7].wlan[0].mac packetReceivedFromLower:vector(packetBytes) ETV
attr interpolationmode none
attr title "packets received from lower layer, vector(packetBytes)"
vector 152 Network.frw[7].wlan[0].mac.rx nav:vector ETV
attr interpolationmode linear
attr source navChanged
attr title "network allocation vector, vector"
vector 153 Network.frw[7].wlan[0].mac.dcf packetDrop:vector(packetBytes) ETV
attr interpolationmode none
attr source packetDropped
attr title "packet drops, vector(packetBytes)"
vector 154 Network.frw[7].wlan[0].mac.dcf packetDropNotAddressedToUs:vector(packetBytes) ETV
attr interpolationmode none
attr source packetDropReasonIsNotAddressedToUs(packetDropped)
attr title "packet drops: not addressed to us, vector(packetBytes)"
vector 155 Network.frw[7].wlan[0].mac packetDrop:vector(packetBytes) ETV
attr interpolationmode none
attr source packetDropped
attr title "packet drops, vector(packetBytes)"
vector 156 Network.frw[7].wlan[0].mac packetDropNotAddressedToUs:vector(packetBytes) ETV
attr interpolationmode none
attr source packetDropReasonIsNotAddressedToUs(packetDropped)
attr title "packet drops: not addressed to us, vector(packetBytes)"
vector 157 Network.frw[0].wlan[0].mac packetSentToLower:vector(packetBytes) ETV
attr interpolationmode none
attr title "packets sent to lower layer, vector(packetBytes)"
vector 158 Network.frw[0].wlan[0].radio transmissionState:vector ETV
attr interpolationmode sample-hold
attr source transmissionStateChanged
attr title "Radio transmission state, vector"
vector 159 Network.frw[0].wlan[0].mac.dcf packetSentToPeer:vector(packetBytes) ETV
attr interpolationmode none
attr title "packets sent, vector(packetBytes)"
vector 160 Network.frw[0].wlan[0].mac.dcf packetSentToPeerUnicast:vector(packetBytes) ETV
attr interpolationmode none
attr source ieee80211Unicast(packetSentToPeer)
attr title "packets sent: unicast, vector(packetBytes)"
vector 161 Network.frw[0].wlan[0].mac.dcf packetSentToPeerWithoutRetry:vector(packetBytes) ETV
attr interpolationmode none
attr source ieee80211NotRetry(packetSentToPeer)
attr title "packets sent: without retry, vector(packetBytes)"
vector 162 Network.rx.wlan[0].mac packetReceivedFromLower:vector(packetBytes) ETV
attr interpolationmode none
attr title "packets received from lower layer, vector(packetBytes)"
vector 163 Network.rx.wlan[0].mac.dcf packetDrop:vector(packetBytes) ETV
attr interpolationmode none
attr source packetDropped
attr title "packet drops, vector(packetBytes)"
vector 164 Network.rx.wlan[0].mac.dcf packetDropNotAddressedToUs:vector(packetBytes) ETV
attr interpolationmode none
attr source packetDropReasonIsNotAddressedToUs(packetDropped)
attr title "packet drops: not addressed to us, vector(packetBytes)"
vector 165 Network.rx.wlan[0].mac packetDrop:vector(packetBytes) ETV
attr interpolationmode none
attr source packetDropped
attr title "packet drops, vector(packetBytes)"
vector 166 Network.rx.wlan[0].mac packetDropNotAddressedToUs:vector(packetBytes) ETV
attr interpolationmode none
attr source packetDropReasonIsNotAddressedToUs(packetDropped)
attr title "packet drops: not addressed to us, vector(packetBytes)"
vector 167 Network.frw[4].wlan[0].mac.dcf.channelAccess.inProgressFrames queueingTime:vector ETV
attr interpolationmode none
attr source queueingTime(packetDequeued)
attr title "queueing times, vector"
vector 168 Network.frw[2].wlan[0].mac packetReceivedFromLower:vector(packetBytes) ETV
attr interpolationmode none
attr title "packets received from lower layer, vector(packetBytes)"
vector 169 Network.frw[2].wlan[0].mac.dcf packetDrop:vector(packetBytes) ETV
attr interpolationmode none
attr source packetDropped
attr title "packet drops, vector(packetBytes)"
vector 170 Network.frw[2].wlan[0].mac.dcf packetDropNotAddressedToUs:vector(packetBytes) ETV
attr interpolationmode none
attr source packetDropReasonIsNotAddressedToUs(packetDropped)
attr title "packet drops: not addressed to us, vector(packetBytes)"
vector 171 Network.frw[2].wlan[0].mac packetDrop:vector(packetBytes) ETV
attr interpolationmode none
attr source packetDropped
attr title "packet drops, vector(packetBytes)"
vector 172 Network.frw[2].wlan[0].mac packetDropNotAddressedToUs:vector(packetBytes) ETV
attr interpolationmode none
attr source packetDropReasonIsNotAddressedToUs(packetDropped)
attr title "packet drops: not addressed to us, vector(packetBytes)"
vector 173 Network.frw[3].wlan[0].mac packetReceivedFromLower:vector(packetBytes) ETV
attr interpolationmode none
attr title "packets received from lower layer, vector(packetBytes)"
vector 174 Network.frw[3].wlan[0].mac.dcf packetDrop:vector(packetBytes) ETV
attr interpolationmode none
attr source packetDropped
attr title "packet drops, vector(packetBytes)"
vector 175 Network.frw[3].wlan[0].mac.dcf packetDropNotAddressedToUs:vector(packetBytes) ETV
attr interpolationmode none
attr source packetDropReasonIsNotAddressedToUs(packetDropped)
attr title "packet drops: not addressed to us, vector(packetBytes)"
vector 176 Network.frw[3].wlan[0].mac packetDrop:vector(packetBytes) ETV
attr interpolationmode none
attr source packetDropped
attr title "packet drops, vector(packetBytes)"
vector 177 Network.frw[3].wlan[0].mac packetDropNotAddressedToUs:vector(packetBytes) ETV
attr interpolationmode none
attr source packetDropReasonIsNotAddressedToUs(packetDropped)
attr title "packet drops: not addressed to us, vector(packetBytes)"
vector 178 Network.frw[0].wlan[0].mac.dcf.channelAccess.pendingQueue packetPopped:vector(packetBytes) ETV
attr interpolationmode none
attr title "packet popped, vector(packetBytes)"
vector 179 Network.frw[0].wlan[0].mac.dcf.channelAccess.pendingQueue queueingTime:vector ETV
attr interpolationmode none
attr source queueingTime(packetPopped)
attr title "queueing times, vector"
attr unit s
vector 180 Network.frw[0].wlan[0].mac.dcf.channelAccess.inProgressFrames queueLength:vector ETV
attr interpolationmode sample-hold
attr source "count(packetEnqueued) - count(packetDequeued)"
attr title "queue length, vector"
vector 181 Network.frw[0].wlan[0].mac.dcf frameSequenceActive:vector ETV
attr interpolationmode sample-hold
attr source count(frameSequenceStarted)-count(frameSequenceFinished)
attr title "frame sequence active, vector"
vector 182 Network.rx.wlan[0].mac.dcf packetReceivedFromPeer:vector(packetBytes) ETV
attr interpolationmode none
attr title "packets received, vector(packetBytes)"
vector 183 Network.rx.wlan[0].mac.dcf packetReceivedFromPeerUnicast:vector(packetBytes) ETV
attr interpolationmode none
attr source ieee80211Unicast(packetReceivedFromPeer)
attr title "packets received: unicast, vector(packetBytes)"
vector 184 Network.rx.wlan[0].mac.dcf packetReceivedFromPeerWithoutRetry:vector(packetBytes) ETV
attr interpolationmode none
attr source ieee80211NotRetry(packetReceivedFromPeer)
attr title "packets received: without retry, vector(packetBytes)"
vector 185 Network.rx.wlan[0].mac.dcf datarateSelected:vector ETV
attr interpolationmode none
attr title "datarates selected, vector"
vector 186 Network.rx.wlan[0].mac packetSentToUpper:vector(packetBytes) ETV
attr interpolationmode none
attr title "packets sent to upper layer, vector(packetBytes)"
vector 187 Network.rx.udp packetReceived:vector(packetBytes) ETV
attr interpolationmode none
attr source packetReceived
attr title "packets received, vector(packetBytes)"
vector 188 Network.rx.udp passedUpPk:vector(count) ETV
attr interpolationmode none
attr source packetSentToUpper
attr title "packets passed up, vector(count)"
vector 189 Network.rx.app[0] packetReceived:vector(packetBytes) ETV
attr interpolationmode none
attr source packetReceived
attr title "packets received, vector(packetBytes)"
vector 190 Network.rx.app[0] endToEndDelay:vector ETV
attr interpolationmode none
attr source dataAge(packetReceived)
attr title "end-to-end delay, vector"
attr unit s
vector 191 Network.rx.app[0] rcvdPkSeqNo:vector ETV
attr interpolationmode none
attr source appPkSeqNo(packetReceived)
attr title "received packet sequence number, vector"
vector 192 Network.frw[4].wlan[0].mac.dcf packetDrop:vector(packetBytes) ETV
attr interpolationmode none
attr source packetDropped
attr title "packet drops, vector(packetBytes)"
vector 193 Network.frw[4].wlan[0].mac.dcf packetDropNotAddressedToUs:vector(packetBytes) ETV
attr interpolationmode none
attr source packetDropReasonIsNotAddressedToUs(packetDropped)
attr title "packet drops: not addressed to us, vector(packetBytes)"
vector 194 Network.frw[4].wlan[0].mac packetDrop:vector(packetBytes) ETV
attr interpolationmode none
attr source packetDropped
attr title "packet drops, vector(packetBytes)"
vector 195 Network.frw[4].wlan[0].mac packetDropNotAddressedToUs:vector(packetBytes) ETV
attr interpolationmode none
attr source packetDropReasonIsNotAddressedToUs(packetDropped)
attr title "packet drops: not addressed to us, vector(packetBytes)"
vector 196 Network.frw[2].wlan[0].mac.rx nav:vector ETV
attr interpolationmode linear
attr source navChanged
attr title "network allocation vector, vector"
vector 197 Network.rx.wlan[0].mac packetSentToLower:vector(packetBytes) ETV
attr interpolationmode none
attr title "packets sent to lower layer, vector(packetBytes)"
vector 198 Network.rx.wlan[0].radio transmissionState:vector ETV
attr interpolationmode sample-hold
attr source transmissionStateChanged
attr title "Radio transmission state, vector"
vector 199 Network.rx.wlan[0].mac.dcf packetSentToPeer:vector(packetBytes) ETV
attr interpolationmode none
attr title "packets sent, vector(packetBytes)"
vector 200 Network.rx.wlan[0].mac.dcf packetSentToPeerUnicast:vector(packetBytes) ETV
attr interpolationmode none
attr source ieee80211Unicast(packetSentToPeer)
attr title "packets sent: unicast, vector(packetBytes)"
vector 201 Network.rx.wlan[0].mac.dcf packetSentToPeerWithoutRetry:vector(packetBytes) ETV
attr interpolationmode none
attr source ieee80211NotRetry(packetSentToPeer)
attr title "packets sent: without retry, vector(packetBytes)"
vector 202 Network.frw[0].wlan[0].mac.dcf.channelAccess.inProgressFrames queueingTime:vector ETV
attr interpolationmode none
attr source queueingTime(packetDequeued)
attr title "queueing times, vector"
vector 203 Network.tx[3].wlan[0].mac.dcf packetSentToPeerWithRetry:vector(packetBytes) ETV
attr interpolationmode none
attr source ieee80211Retry(packetSentToPeer)
attr title "packets sent: with retry, vector(packetBytes)"
vector 204 Network.rx.wlan[0].mac.rx nav:vector ETV
attr interpolationmode linear
attr source navChanged
attr title "network allocation vector, vector"
vector 205 Network.tx[2].app[0] packetSent:vector(packetBytes) ETV
attr interpolationmode none
attr source packetSent
attr title "packets sent, vector(packetBytes)"
vector 206 Network.tx[2].udp packetSent:vector(packetBytes) ETV
attr interpolationmode none
attr source packetSent
attr title "packets sent, vector(packetBytes)"
vector 207 Network.tx[2].wlan[0].mac packetReceivedFromUpper:vector(packetBytes) ETV
attr interpolationmode none
attr title "packets received from upper layer, vector(packetBytes)"
vector 208 Network.tx[2].wlan[0].mac.dcf.channelAccess.pendingQueue packetPushed:vector(packetBytes) ETV
attr interpolationmode none
attr title "packet pushed, vector(packetBytes)"
vector 209 Network.tx[2].wlan[0].mac.dcf.channelAccess.pendingQueue queueLength:vector ETV
attr interpolationmode sample-hold
attr source "count(packetPushed) - count(packetPopped) - count(packetRemoved) - count(packetDropped)"
attr title "queue length, vector"
vector 210 Network.tx[2].wlan[0].mac.dcf.channelAccess.contention backoffPeriodGenerated:vector ETV
attr interpolationmode none
attr title "backoff periods, vector"
vector 211 Network.tx[2].wlan[0].mac.dcf.channelAccess.contention backoffActive:vector ETV
attr interpolationmode sample-hold
attr source count(backoffStarted)-count(backoffStopped)
attr title "backoff active, vector"
vector 212 Network.tx[2].wlan[0].mac.dcf.channelAccess.pendingQueue packetPopped:vector(packetBytes) ETV
attr interpolationmode none
attr title "packet popped, vector(packetBytes)"
vector 213 Network.tx[2].wlan[0].mac.dcf.channelAccess.pendingQueue queueingTime:vector ETV
attr interpolationmode none
attr source queueingTime(packetPopped)
attr title "queueing times, vector"
attr unit s
vector 214 Network.tx[2].wlan[0].mac.dcf.channelAccess.inProgressFrames queueLength:vector ETV
attr interpolationmode sample-hold
attr source "count(packetEnqueued) - count(packetDequeued)"
attr title "queue length, vector"
vector 215 Network.tx[2].wlan[0].mac.dcf datarateSelected:vector ETV
attr interpolationmode none
attr title "datarates selected, vector"
vector 216 Network.tx[2].wlan[0].mac packetSentToLower:vector(packetBytes) ETV
attr interpolationmode none
attr title "packets sent to lower layer, vector(packetBytes)"
vector 217 Network.tx[2].wlan[0].mac.dcf frameSequenceActive:vector ETV
attr interpolationmode sample-hold
attr source count(frameSequenceStarted)-count(frameSequenceFinished)
attr title "frame sequence active, vector"
vector 218 Network.tx[2].wlan[0].radio transmissionState:vector ETV
attr interpolationmode sample-hold
attr source transmissionStateChanged
attr title "Radio transmission state, vector"
vector 219 Network.tx[2].wlan[0].mac.dcf packetSentToPeer:vector(packetBytes) ETV
attr interpolationmode none
attr title "packets sent, vector(packetBytes)"
vector 220 Network.tx[2].wlan[0].mac.dcf packetSentToPeerUnicast:vector(packetBytes) ETV
attr interpolationmode none
attr source ieee80211Unicast(packetSentToPeer)
attr title "packets sent: unicast, vector(packetBytes)"
vector 221 Network.tx[2].wlan[0].mac.dcf packetSentToPeerWithoutRetry:vector(packetBytes) ETV
attr interpolationmode none
attr source ieee80211NotRetry(packetSentToPeer)
attr title "packets sent: without retry, vector(packetBytes)"
vector 222 Network.tx[2].wlan[0].mac.rx nav:vector ETV
attr interpolationmode linear
attr source navChanged
attr title "network allocation vector, vector"
vector 223 Network.tx[0].wlan[0].mac packetReceivedFromLower:vector(packetBytes) ETV
attr interpolationmode none
attr title "packets received from lower layer, vector(packetBytes)"
vector 224 Network.tx[0].wlan[0].mac.rx nav:vector ETV
attr interpolationmode linear
attr source navChanged
attr title "network allocation vector, vector"
vector 225 Network.tx[0].wlan[0].mac.dcf packetDrop:vector(packetBytes) ETV
attr interpolationmode none
attr source packetDropped
attr title "packet drops, vector(packetBytes)"
vector 226 Network.tx[0].wlan[0].mac.dcf packetDropNotAddressedToUs:vector(packetBytes) ETV
attr interpolationmode none
attr source packetDropReasonIsNotAddressedToUs(packetDropped)
attr title "packet drops: not addressed to us, vector(packetBytes)"
vector 227 Network.tx[0].wlan[0].mac packetDrop:vector(packetBytes) ETV
attr interpolationmode none
attr source packetDropped
attr title "packet drops, vector(packetBytes)"
vector 228 Network.tx[0].wlan[0].mac packetDropNotAddressedToUs:vector(packetBytes) ETV
attr interpolationmode none
attr source packetDropReasonIsNotAddressedToUs(packetDropped)
attr title "packet drops: not addressed to us, vector(packetBytes)"
vector 229 Network.tx[2].wlan[0].mac.dcf packetSentToPeerWithRetry:vector(packetBytes) ETV
attr interpolationmode none
attr source ieee80211Retry(packetSentToPeer)
attr title "packets sent: with retry, vector(packetBytes)"
vector 230 Network.frw[7].wlan[0].mac.dcf packetReceivedFromPeer:vector(packetBytes) ETV
attr interpolationmode none
attr title "packets received, vector(packetBytes)"
vector 231 Network.frw[7].wlan[0].mac.dcf packetReceivedFromPeerUnicast:vector(packetBytes) ETV
attr interpolationmode none
attr source ieee80211Unicast(packetReceivedFromPeer)
attr title "packets received: unicast, vector(packetBytes)"
vector 232 Network.frw[7].wlan[0].mac.dcf packetReceivedFromPeerWithRetry:vector(packetBytes) ETV
attr interpolationmode none
attr source ieee80211Retry(packetReceivedFromPeer)
attr title "packets received: with retry, vector(packetBytes)"
vector 233 Network.frw[7].wlan[0].mac.dcf datarateSelected:vector ETV
attr interpolationmode none
attr title "datarates selected, vector"
vector 234 Network.frw[7].wlan[0].mac packetSentToUpper:vector(packetBytes) ETV
attr interpolationmode none
attr title "packets sent to upper layer, vector(packetBytes)"
vector 235 Network.frw[7].wlan[0].mac packetReceivedFromUpper:vector(packetBytes) ETV
attr interpolationmode none
attr title "packets received from upper layer, vector(packetBytes)"
vector 236 Network.frw[7].wlan[0].mac.dcf.channelAccess.pendingQueue packetPushed:vector(packetBytes) ETV
attr interpolationmode none
attr title "packet pushed, vector(packetBytes)"
vector 237 Network.frw[7].wlan[0].mac.dcf.channelAccess.pendingQueue queueLength:vector ETV
attr interpolationmode sample-hold
attr source "count(packetPushed) - count(packetPopped) - count(packetRemoved) - count(packetDropped)"
attr title "queue length, vector"
vector 238 Network.frw[7].wlan[0].mac.dcf.channelAccess.contention backoffPeriodGenerated:vector ETV
attr interpolationmode none
attr title "backoff periods, vector"
vector 239 Network.frw[7].wlan[0].mac.dcf.channelAccess.contention backoffActive:vector ETV
attr interpolationmode sample-hold
attr source count(backoffStarted)-count(backoffStopped)
attr title "backoff active, vector"
vector 240 Network.frw[7].wlan[0].mac packetSentToLower:vector(packetBytes) ETV
attr interpolationmode none
attr title "packets sent to lower layer, vector(packetBytes)"
vector 241 Network.frw[7].wlan[0].radio transmissionState:vector ETV
attr interpolationmode sample-hold
attr source transmissionStateChanged
attr title "Radio transmission state, vector"
vector 242 Network.frw[7].wlan[0].mac.dcf packetSentToPeer:vector(packetBytes) ETV
attr interpolationmode none
attr title "packets sent, vector(packetBytes)"
vector 243 Network.frw[7].wlan[0].mac.dcf packetSentToPeerUnicast:vector(packetBytes) ETV
attr interpolationmode none
attr source ieee80211Unicast(packetSentToPeer)
attr title "packets sent: unicast, vector(packetBytes)"
vector 244 Network.frw[7].wlan[0].mac.dcf packetSentToPeerWithoutRetry:vector(packetBytes) ETV
attr interpolationmode none
attr source ieee80211NotRetry(packetSentToPeer)
attr title "packets sent: without retry, vector(packetBytes)"
vector 245 Network.tx[4].app[0] packetSent:vector(packetBytes) ETV
attr interpolationmode none
attr source packetSent
attr title "packets sent, vector(packetBytes)"
vector 246 Network.tx[4].udp packetSent:vector(packetBytes) ETV
attr interpolationmode none
attr source packetSent
attr title "packets sent, vector(packetBytes)"
vector 247 Network.tx[4].wlan[0].mac packetReceivedFromUpper:vector(packetBytes) ETV
attr interpolationmode none
attr title "packets received from upper layer, vector(packetBytes)"
vector 248 Network.tx[4].wlan[0].mac.dcf.channelAccess.pendingQueue packetPushed:vector(packetBytes) ETV
attr interpolationmode none
attr title "packet pushed, vector(packetBytes)"
vector 249 Network.tx[4].wlan[0].mac.dcf.channelAccess.pendingQueue queueLength:vector ETV
attr interpolationmode sample-hold
attr source "count(packetPushed) - count(packetPopped) - count(packetRemoved) - count(packetDropped)"
attr title "queue length, vector"
vector 250 Network.tx[4].wlan[0].mac.dcf.channelAccess.contention backoffPeriodGenerated:vector ETV
attr interpolationmode none
attr title "backoff periods, vector"
vector 251 Network.tx[4].wlan[0].mac.dcf.channelAccess.contention backoffActive:vector ETV
attr interpolationmode sample-hold
attr source count(backoffStarted)-count(backoffStopped)
attr title "backoff active, vector"
vector 252 Network.tx[4].wlan[0].mac.dcf.channelAccess.pendingQueue packetPopped:vector(packetBytes) ETV
attr interpolationmode none
attr title "packet popped, vector(packetBytes)"
vector 253 Network.tx[4].wlan[0].mac.dcf.channelAccess.pendingQueue queueingTime:vector ETV
attr interpolationmode none
attr source queueingTime(packetPopped)
attr title "queueing times, vector"
attr unit s
vector 254 Network.tx[4].wlan[0].mac.dcf.channelAccess.inProgressFrames queueLength:vector ETV
attr interpolationmode sample-hold
attr source "count(packetEnqueued) - count(packetDequeued)"
attr title "queue length, vector"
vector 255 Network.tx[4].wlan[0].mac.dcf datarateSelected:vector ETV
attr interpolationmode none
attr title "datarates selected, vector"
vector 256 Network.tx[4].wlan[0].mac packetSentToLower:vector(packetBytes) ETV
attr interpolationmode none
attr title "packets sent to lower layer, vector(packetBytes)"
vector 257 Network.tx[4].wlan[0].mac.dcf frameSequenceActive:vector ETV
attr interpolationmode sample-hold
attr source count(frameSequenceStarted)-count(frameSequenceFinished)
attr title "frame sequence active, vector"
vector 258 Network.tx[4].wlan[0].radio transmissionState:vector ETV
attr interpolationmode sample-hold
attr source transmissionStateChanged
attr title "Radio transmission state, vector"
vector 259 Network.tx[5].app[0] packetSent:vector(packetBytes) ETV
attr interpolationmode none
attr source packetSent
attr title "packets sent, vector(packetBytes)"
vector 260 Network.tx[5].udp packetSent:vector(packetBytes) ETV
attr interpolationmode none
attr source packetSent
attr title "packets sent, vector(packetBytes)"
vector 261 Network.tx[5].wlan[0].mac packetReceivedFromUpper:vector(packetBytes) ETV
attr interpolationmode none
attr title "packets received from upper layer, vector(packetBytes)"
vector 262 Network.tx[5].wlan[0].mac.dcf.channelAccess.pendingQueue packetPushed:vector(packetBytes) ETV
attr interpolationmode none
attr title "packet pushed, vector(packetBytes)"
vector 263 Network.tx[5].wlan[0].mac.dcf.channelAccess.pendingQueue queueLength:vector ETV
attr interpolationmode sample-hold
attr source "count(packetPushed) - count(packetPopped) - count(packetRemoved) - count(packetDropped)"
attr title "queue length, vector"
vector 264 Network.tx[5].wlan[0].mac.dcf.channelAccess.contention backoffPeriodGenerated:vector ETV
attr interpolationmode none
attr title "backoff periods, vector"
vector 265 Network.tx[5].wlan[0].mac.dcf.channelAccess.contention backoffActive:vector ETV
attr interpolationmode sample-hold
attr source count(backoffStarted)-count(backoffStopped)
attr title "backoff active, vector"
vector 266 Network.tx[5].wlan[0].mac.dcf.channelAccess.pendingQueue packetPopped:vector(packetBytes) ETV
attr interpolationmode none
attr title "packet popped, vector(packetBytes)"
vector 267 Network.tx[5].wlan[0].mac.dcf.channelAccess.pendingQueue queueingTime:vector ETV
attr interpolationmode none
attr source queueingTime(packetPopped)
attr title "queueing times, vector"
attr unit s
vector 268 Network.tx[5].wlan[0].mac.dcf.channelAccess.inProgressFrames queueLength:vector ETV
attr interpolationmode sample-hold
attr source "count(packetEnqueued) - count(packetDequeued)"
attr title "queue length, vector"
vector 269 Network.tx[5].wlan[0].mac.dcf datarateSelected:vector ETV
attr interpolationmode none
attr title "datarates selected, vector"
vector 270 Network.tx[5].wlan[0].mac packetSentToLower:vector(packetBytes) ETV
attr interpolationmode none
attr title "packets sent to lower layer, vector(packetBytes)"
vector 271 Network.tx[5].wlan[0].mac.dcf frameSequenceActive:vector ETV
attr interpolationmode sample-hold
attr source count(frameSequenceStarted)-count(frameSequenceFinished)
attr title "frame sequence active, vector"
vector 272 Network.tx[5].wlan[0].radio transmissionState:vector ETV
attr interpolationmode sample-hold
attr source transmissionStateChanged
attr title "Radio transmission state, vector"
vector 273 Network.tx[4].wlan[0].mac.dcf packetSentToPeer:vector(packetBytes) ETV
attr interpolationmode none
attr title "packets sent, vector(packetBytes)"
vector 274 Network.tx[4].wlan[0].mac.dcf packetSentToPeerUnicast:vector(packetBytes) ETV
attr interpolationmode none
attr source ieee80211Unicast(packetSentToPeer)
attr title "packets sent: unicast, vector(packetBytes)"
vector 275 Network.tx[4].wlan[0].mac.dcf packetSentToPeerWithoutRetry:vector(packetBytes) ETV
attr interpolationmode none
attr source ieee80211NotRetry(packetSentToPeer)
attr title "packets sent: without retry, vector(packetBytes)"
vector 276 Network.tx[4].wlan[0].mac.rx nav:vector ETV
attr interpolationmode linear
attr source navChanged
attr title "network allocation vector, vector"
vector 277 Network.frw[5].wlan[0].mac packetReceivedFromLower:vector(packetBytes) ETV
attr interpolationmode none
attr title "packets received from lower layer, vector(packetBytes)"
vector 278 Network.frw[5].wlan[0].mac.dcf packetReceivedFromPeer:vector(packetBytes) ETV
attr interpolationmode none
attr title "packets received, vector(packetBytes)"
vector 279 Network.frw[5].wlan[0].mac.dcf packetReceivedFromPeerUnicast:vector(packetBytes) ETV
attr interpolationmode none
attr source ieee80211Unicast(packetReceivedFromPeer)
attr title "packets received: unicast, vector(packetBytes)"
vector 280 Network.frw[5].wlan[0].mac.dcf packetReceivedFromPeerWithoutRetry:vector(packetBytes) ETV
attr interpolationmode none
attr source ieee80211NotRetry(packetReceivedFromPeer)
attr title "packets received: without retry, vector(packetBytes)"
vector 281 Network.frw[5].wlan[0].mac.dcf datarateSelected:vector ETV
attr interpolationmode none
attr title "datarates selected, vector"
vector 282 Network.frw[5].wlan[0].mac packetSentToUpper:vector(packetBytes) ETV
attr interpolationmode none
attr title "packets sent to upper layer, vector(packetBytes)"
vector 283 Network.frw[5].wlan[0].mac packetReceivedFromUpper:vector(packetBytes) ETV
attr interpolationmode none
attr title "packets received from upper layer, vector(packetBytes)"
vector 284 Network.frw[5].wlan[0].mac.dcf.channelAccess.pendingQueue packetPushed:vector(packetBytes) ETV
attr interpolationmode none
attr title "packet pushed, vector(packetBytes)"
vector 285 Network.frw[5].wlan[0].mac.dcf.channelAccess.pendingQueue queueLength:vector ETV
attr interpolationmode sample-hold
attr source "count(packetPushed) - count(packetPopped) - count(packetRemoved) - count(packetDropped)"
attr title "queue length, vector"
vector 286 Network.frw[5].wlan[0].mac.dcf.channelAccess.contention backoffPeriodGenerated:vector ETV
attr interpolationmode none
attr title "backoff periods, vector"
vector 287 Network.frw[5].wlan[0].mac.dcf.channelAccess.contention backoffActive:vector ETV
attr interpolationmode sample-hold
attr source count(backoffStarted)-count(backoffStopped)
attr title "backoff active, vector"
vector 288 Network.tx[10].wlan[0].mac packetReceivedFromLower:vector(packetBytes) ETV
attr interpolationmode none
attr title "packets received from lower layer, vector(packetBytes)"
vector 289 Network.tx[10].wlan[0].mac.rx nav:vector ETV
attr interpolationmode linear
attr source navChanged
attr title "network allocation vector, vector"
vector 290 Network.tx[10].wlan[0].mac.dcf packetDrop:vector(packetBytes) ETV
attr interpolationmode none
attr source packetDropped
attr title "packet drops, vector(packetBytes)"
vector 291 Network.tx[10].wlan[0].mac.dcf packetDropNotAddressedToUs:vector(packetBytes) ETV
attr interpolationmode none
attr source packetDropReasonIsNotAddressedToUs(packetDropped)
attr title "packet drops: not addressed to us, vector(packetBytes)"
vector 292 Network.tx[10].wlan[0].mac packetDrop:vector(packetBytes) ETV
attr interpolationmode none
attr source packetDropped
attr title "packet drops, vector(packetBytes)"
vector 293 Network.tx[10].wlan[0].mac packetDropNotAddressedToUs:vector(packetBytes) ETV
attr interpolationmode none
attr source packetDropReasonIsNotAddressedToUs(packetDropped)
attr title "packet drops: not addressed to us, vector(packetBytes)"
vector 294 Network.frw[3].wlan[0].mac.rx nav:vector ETV
attr interpolationmode linear
attr source navChanged
attr title "network allocation vector, vector"
vector 295 Network.frw[1].wlan[0].mac packetDropIncorrectlyReceived:vector(packetBytes) ETV
attr interpolationmode none
attr source packetDropReasonIsIncorrectlyReceived(packetDropped)
attr title "packet drops: incorrectly received, vector(packetBytes)"
vector 296 Network.frw[5].wlan[0].mac packetSentToLower:vector(packetBytes) ETV
attr interpolationmode none
attr title "packets sent to lower layer, vector(packetBytes)"
vector 297 Network.frw[5].wlan[0].radio transmissionState:vector ETV
attr interpolationmode sample-hold
attr source transmissionStateChanged
attr title "Radio transmission state, vector"
vector 298 Network.tx[5].wlan[0].mac.dcf packetSentToPeer:vector(packetBytes) ETV
attr interpolationmode none
attr title "packets sent, vector(packetBytes)"
vector 299 Network.tx[5].wlan[0].mac.dcf packetSentToPeerUnicast:vector(packetBytes) ETV
attr interpolationmode none
attr source ieee80211Unicast(packetSentToPeer)
attr title "packets sent: unicast, vector(packetBytes)"
vector 300 Network.tx[5].wlan[0].mac.dcf packetSentToPeerWithoutRetry:vector(packetBytes) ETV
attr interpolationmode none
attr source ieee80211NotRetry(packetSentToPeer)
attr title "packets sent: without retry, vector(packetBytes)"
vector 301 Network.tx[5].wlan[0].mac.rx nav:vector ETV
attr interpolationmode linear
attr source navChanged
attr title "network allocation vector, vector"
vector 302 Network.frw[5].wlan[0].mac.dcf packetSentToPeer:vector(packetBytes) ETV
attr interpolationmode none
attr title "packets sent, vector(packetBytes)"
vector 303 Network.frw[5].wlan[0].mac.dcf packetSentToPeerUnicast:vector(packetBytes) ETV
attr interpolationmode none
attr source ieee80211Unicast(packetSentToPeer)
attr title "packets sent: unicast, vector(packetBytes)"
vector 304 Network.frw[5].wlan[0].mac.dcf packetSentToPeerWithoutRetry:vector(packetBytes) ETV
attr interpolationmode none
attr source ieee80211NotRetry(packetSentToPeer)
attr title "packets sent: without retry, vector(packetBytes)"
vector 305 Network.frw[2].wlan[0].mac packetDropIncorrectlyReceived:vector(packetBytes) ETV
attr interpolationmode none
attr source packetDropReasonIsIncorrectlyReceived(packetDropped)
attr title "packet drops: incorrectly received, vector(packetBytes)"
vector 306 Network.frw[7].wlan[0].mac.dcf.channelAccess.pendingQueue packetPopped:vector(packetBytes) ETV
attr interpolationmode none
attr title "packet popped, vector(packetBytes)"
vector 307 Network.frw[7].wlan[0].mac.dcf.channelAccess.pendingQueue queueingTime:vector ETV
attr interpolationmode none
attr source queueingTime(packetPopped)
attr title "queueing times, vector"
attr unit s
vector 308 Network.frw[7].wlan[0].mac.dcf.channelAccess.inProgressFrames queueLength:vector ETV
attr interpolationmode sample-hold
attr source "count(packetEnqueued) - count(packetDequeued)"
attr title "queue length, vector"
vector 309 Network.frw[7].wlan[0].mac.dcf frameSequenceActive:vector ETV
attr interpolationmode sample-hold
attr source count(frameSequenceStarted)-count(frameSequenceFinished)
attr title "frame sequence active, vector"
vector 310 Network.frw[5].wlan[0].mac.dcf.channelAccess.pendingQueue packetPopped:vector(packetBytes) ETV
attr interpolationmode none
attr title "packet popped, vector(packetBytes)"
vector 311 Network.frw[5].wlan[0].mac.dcf.channelAccess.pendingQueue queueingTime:vector ETV
attr interpolationmode none
attr source queueingTime(packetPopped)
attr title "queueing times, vector"
attr unit s
vector 312 Network.frw[5].wlan[0].mac.dcf.channelAccess.inProgressFrames queueLength:vector ETV
attr interpolationmode sample-hold
attr source "count(packetEnqueued) - count(packetDequeued)"
attr title "queue length, vector"
vector 313 Network.frw[5].wlan[0].mac.dcf frameSequenceActive:vector ETV
attr interpolationmode sample-hold
attr source count(frameSequenceStarted)-count(frameSequenceFinished)
attr title "frame sequence active, vector"
vector 314 Network.frw[5].wlan[0].mac.rx nav:vector ETV
attr interpolationmode linear
attr source navChanged
attr title "network allocation vector, vector"
vector 315 Network.tx[4].wlan[0].mac packetReceivedFromLower:vector(packetBytes) ETV
attr interpolationmode none
attr title "packets received from lower layer, vector(packetBytes)"
vector 316 Network.tx[4].wlan[0].mac.dcf packetDrop:vector(packetBytes) ETV
attr interpolationmode none
attr source packetDropped
attr title "packet drops, vector(packetBytes)"
vector 317 Network.tx[4].wlan[0].mac.dcf packetDropNotAddressedToUs:vector(packetBytes) ETV
attr interpolationmode none
attr source packetDropReasonIsNotAddressedToUs(packetDropped)
attr title "packet drops: not addressed to us, vector(packetBytes)"
vector 318 Network.tx[4].wlan[0].mac packetDrop:vector(packetBytes) ETV
attr interpolationmode none
attr source packetDropped
attr title "packet drops, vector(packetBytes)"
vector 319 Network.tx[4].wlan[0].mac packetDropNotAddressedToUs:vector(packetBytes) ETV
attr interpolationmode none
attr source packetDropReasonIsNotAddressedToUs(packetDropped)
attr title "packet drops: not addressed to us, vector(packetBytes)"
vector 320 Network.frw[2].wlan[0].mac.dcf packetReceivedFromPeer:vector(packetBytes) ETV
attr interpolationmode none
attr title "packets received, vector(packetBytes)"
vector 321 Network.frw[2].wlan[0].mac.dcf packetReceivedFromPeerUnicast:vector(packetBytes) ETV
attr interpolationmode none
attr source ieee80211Unicast(packetReceivedFromPeer)
attr title "packets received: unicast, vector(packetBytes)"
vector 322 Network.frw[2].wlan[0].mac.dcf packetReceivedFromPeerWithoutRetry:vector(packetBytes) ETV
attr interpolationmode none
attr source ieee80211NotRetry(packetReceivedFromPeer)
attr title "packets received: without retry, vector(packetBytes)"
vector 323 Network.frw[2].wlan[0].mac.dcf datarateSelected:vector ETV
attr interpolationmode none
attr title "datarates selected, vector"
vector 324 Network.frw[2].wlan[0].mac packetSentToUpper:vector(packetBytes) ETV
attr interpolationmode none
attr title "packets sent to upper layer, vector(packetBytes)"
vector 325 Network.frw[2].wlan[0].mac packetReceivedFromUpper:vector(packetBytes) ETV
attr interpolationmode none
attr title "packets received from upper layer, vector(packetBytes)"
vector 326 Network.frw[2].wlan[0].mac.dcf.channelAccess.pendingQueue packetPushed:vector(packetBytes) ETV
attr interpolationmode none
attr title "packet pushed, vector(packetBytes)"
vector 327 Network.frw[2].wlan[0].mac.dcf.channelAccess.pendingQueue queueLength:vector ETV
attr interpolationmode sample-hold
attr source "count(packetPushed) - count(packetPopped) - count(packetRemoved) - count(packetDropped)"
attr title "queue length, vector"
vector 328 Network.frw[2].wlan[0].mac.dcf.channelAccess.contention backoffPeriodGenerated:vector ETV
attr interpolationmode none
attr title "backoff periods, vector"
vector 329 Network.frw[2].wlan[0].mac.dcf.channelAccess.contention backoffActive:vector ETV
attr interpolationmode sample-hold
attr source count(backoffStarted)-count(backoffStopped)
attr title "backoff active, vector"
vector 330 Network.frw[2].wlan[0].mac packetSentToLower:vector(packetBytes) ETV
attr interpolationmode none
attr title "packets sent to lower layer, vector(packetBytes)"
vector 331 Network.frw[2].wlan[0].radio transmissionState:vector ETV
attr interpolationmode sample-hold
attr source transmissionStateChanged
attr title "Radio transmission state, vector"
vector 332 Network.frw[2].wlan[0].mac.dcf packetSentToPeer:vector(packetBytes) ETV
attr interpolationmode none
attr title "packets sent, vector(packetBytes)"
vector 333 Network.frw[2].wlan[0].mac.dcf packetSentToPeerUnicast:vector(packetBytes) ETV
attr interpolationmode none
attr source ieee80211Unicast(packetSentToPeer)
attr title "packets sent: unicast, vector(packetBytes)"
vector 334 Network.frw[2].wlan[0].mac.dcf packetSentToPeerWithoutRetry:vector(packetBytes) ETV
attr interpolationmode none
attr source ieee80211NotRetry(packetSentToPeer)
attr title "packets sent: without retry, vector(packetBytes)"
vector 335 Network.frw[5].wlan[0].mac.dcf.channelAccess.inProgressFrames queueingTime:vector ETV
attr interpolationmode none
attr source queueingTime(packetDequeued)
attr title "queueing times, vector"
vector 336 Network.frw[2].wlan[0].mac.dcf.channelAccess.pendingQueue packetPopped:vector(packetBytes) ETV
attr interpolationmode none
attr title "packet popped, vector(packetBytes)"
vector 337 Network.frw[2].wlan[0].mac.dcf.channelAccess.pendingQueue queueingTime:vector ETV
attr interpolationmode none
attr source queueingTime(packetPopped)
attr title "queueing times, vector"
attr unit s
vector 338 Network.frw[2].wlan[0].mac.dcf.channelAccess.inProgressFrames queueLength:vector ETV
attr interpolationmode sample-hold
attr source "count(packetEnqueued) - count(packetDequeued)"
attr title "queue length, vector"
vector 339 Network.frw[2].wlan[0].mac.dcf frameSequenceActive:vector ETV
attr interpolationmode sample-hold
attr source count(frameSequenceStarted)-count(frameSequenceFinished)
attr title "frame sequence active, vector"
vector 340 Network.tx[5].wlan[0].mac.dcf packetSentToPeerWithRetry:vector(packetBytes) ETV
attr interpolationmode none
attr source ieee80211Retry(packetSentToPeer)
attr title "packets sent: with retry, vector(packetBytes)"
vector 341 Network.tx[4].wlan[0].mac.dcf packetSentToPeerWithRetry:vector(packetBytes) ETV
attr interpolationmode none
attr source ieee80211Retry(packetSentToPeer)
attr title "packets sent: with retry, vector(packetBytes)"
vector 342 Network.frw[2].wlan[0].mac.dcf packetSentToPeerWithRetry:vector(packetBytes) ETV
attr interpolationmode none
attr source ieee80211Retry(packetSentToPeer)
attr title "packets sent: with retry, vector(packetBytes)"
vector 343 Network.rx.wlan[0].mac.dcf packetReceivedFromPeerWithRetry:vector(packetBytes) ETV
attr interpolationmode none
attr source ieee80211Retry(packetReceivedFromPeer)
attr title "packets received: with retry, vector(packetBytes)"
vector 344 Network.frw[5].wlan[0].mac.dcf packetDrop:vector(packetBytes) ETV
attr interpolationmode none
attr source packetDropped
attr title "packet drops, vector(packetBytes)"
vector 345 Network.frw[5].wlan[0].mac.dcf packetDropNotAddressedToUs:vector(packetBytes) ETV
attr interpolationmode none
attr source packetDropReasonIsNotAddressedToUs(packetDropped)
attr title "packet drops: not addressed to us, vector(packetBytes)"
vector 346 Network.frw[5].wlan[0].mac packetDrop:vector(packetBytes) ETV
attr interpolationmode none
attr source packetDropped
attr title "packet drops, vector(packetBytes)"
vector 347 Network.frw[5].wlan[0].mac packetDropNotAddressedToUs:vector(packetBytes) ETV
attr interpolationmode none
attr source packetDropReasonIsNotAddressedToUs(packetDropped)
attr title "packet drops: not addressed to us, vector(packetBytes)"
vector 348 Network.frw[7].wlan[0].mac.dcf packetSentToPeerWithRetry:vector(packetBytes) ETV
attr interpolationmode none
attr source ieee80211Retry(packetSentToPeer)
attr title "packets sent: with retry, vector(packetBytes)"
vector 349 Network.tx[0].wlan[0].mac packetDropIncorrectlyReceived:vector(packetBytes) ETV
attr interpolationmode none
attr source packetDropReasonIsIncorrectlyReceived(packetDropped)
attr title "packet drops: incorrectly received, vector(packetBytes)"
vector 350 Network.rx.wlan[0].mac packetDropIncorrectlyReceived:vector(packetBytes) ETV
attr interpolationmode none
attr source packetDropReasonIsIncorrectlyReceived(packetDropped)
attr title "packet drops: incorrectly received, vector(packetBytes)"
vector 351 Network.tx[6].wlan[0].mac packetDropIncorrectlyReceived:vector(packetBytes) ETV
attr interpolationmode none
attr source packetDropReasonIsIncorrectlyReceived(packetDropped)
attr title "packet drops: incorrectly received, vector(packetBytes)"
vector 352 Network.tx[2].wlan[0].mac packetReceivedFromLower:vector(packetBytes) ETV
attr interpolationmode none
attr title "packets received from lower layer, vector(packetBytes)"
vector 353 Network.tx[2].wlan[0].mac.dcf packetDrop:vector(packetBytes) ETV
attr interpolationmode none
attr source packetDropped
attr title "packet drops, vector(packetBytes)"
vector 354 Network.tx[2].wlan[0].mac.dcf packetDropNotAddressedToUs:vector(packetBytes) ETV
attr interpolationmode none
attr source packetDropReasonIsNotAddressedToUs(packetDropped)
attr title "packet drops: not addressed to us, vector(packetBytes)"
vector 355 Network.tx[2].wlan[0].mac packetDrop:vector(packetBytes) ETV
attr interpolationmode none
attr source packetDropped
attr title "packet drops, vector(packetBytes)"
vector 356 Network.tx[2].wlan[0].mac packetDropNotAddressedToUs:vector(packetBytes) ETV
attr interpolationmode none
attr source packetDropReasonIsNotAddressedToUs(packetDropped)
attr title "packet drops: not addressed to us, vector(packetBytes)"
vector 357 Network.tx[7].app[0] packetSent:vector(packetBytes) ETV
attr interpolationmode none
attr source packetSent
attr title "packets sent, vector(packetBytes)"
vector 358 Network.tx[7].udp packetSent:vector(packetBytes) ETV
attr interpolationmode none
attr source packetSent
attr title "packets sent, vector(packetBytes)"
vector 359 Network.tx[7].wlan[0].mac packetReceivedFromUpper:vector(packetBytes) ETV
attr interpolationmode none
attr title "packets received from upper layer, vector(packetBytes)"
vector 360 Network.tx[7].wlan[0].mac.dcf.channelAccess.pendingQueue packetPushed:vector(packetBytes) ETV
attr interpolationmode none
attr title "packet pushed, vector(packetBytes)"
vector 361 Network.tx[7].wlan[0].mac.dcf.channelAccess.pendingQueue queueLength:vector ETV
attr interpolationmode sample-hold
attr source "count(packetPushed) - count(packetPopped) - count(packetRemoved) - count(packetDropped)"
attr title "queue length, vector"
vector 362 Network.tx[7].wlan[0].mac.dcf.channelAccess.contention backoffPeriodGenerated:vector ETV
attr interpolationmode none
attr title "backoff periods, vector"
vector 363 Network.tx[7].wlan[0].mac.dcf.channelAccess.contention backoffActive:vector ETV
attr interpolationmode sample-hold
attr source count(backoffStarted)-count(backoffStopped)
attr title "backoff active, vector"
vector 364 Network.tx[7].wlan[0].mac.dcf.channelAccess.pendingQueue packetPopped:vector(packetBytes) ETV
attr interpolationmode none
attr title "packet popped, vector(packetBytes)"
vector 365 Network.tx[7].wlan[0].mac.dcf.channelAccess.pendingQueue queueingTime:vector ETV
attr interpolationmode none
attr source queueingTime(packetPopped)
attr title "queueing times, vector"
attr unit s
vector 366 Network.tx[7].wlan[0].mac.dcf.channelAccess.inProgressFrames queueLength:vector ETV
attr interpolationmode sample-hold
attr source "count(packetEnqueued) - count(packetDequeued)"
attr title "queue length, vector"
vector 367 Network.tx[7].wlan[0].mac.dcf datarateSelected:vector ETV
attr interpolationmode none
attr title "datarates selected, vector"
vector 368 Network.tx[7].wlan[0].mac packetSentToLower:vector(packetBytes) ETV
attr interpolationmode none
attr title "packets sent to lower layer, vector(packetBytes)"
vector 369 Network.tx[7].wlan[0].mac.dcf frameSequenceActive:vector ETV
attr interpolationmode sample-hold
attr source count(frameSequenceStarted)-count(frameSequenceFinished)
attr title "frame sequence active, vector"
vector 370 Network.tx[7].wlan[0].radio transmissionState:vector ETV
attr interpolationmode sample-hold
attr source transmissionStateChanged
attr title "Radio transmission state, vector"
vector 371 Network.tx[7].wlan[0].mac.dcf packetSentToPeer:vector(packetBytes) ETV
attr interpolationmode none
attr title "packets sent, vector(packetBytes)"
vector 372 Network.tx[7].wlan[0].mac.dcf packetSentToPeerUnicast:vector(packetBytes) ETV
attr interpolationmode none
attr source ieee80211Unicast(packetSentToPeer)
attr title "packets sent: unicast, vector(packetBytes)"
vector 373 Network.tx[7].wlan[0].mac.dcf packetSentToPeerWithoutRetry:vector(packetBytes) ETV
attr interpolationmode none
attr source ieee80211NotRetry(packetSentToPeer)
attr title "packets sent: without retry, vector(packetBytes)"
vector 374 Network.tx[7].wlan[0].mac.rx nav:vector ETV
attr interpolationmode linear
attr source navChanged
attr title "network allocation vector, vector"
vector 375 Network.tx[8].wlan[0].mac packetReceivedFromLower:vector(packetBytes) ETV
attr interpolationmode none
attr title "packets received from lower layer, vector(packetBytes)"
vector 376 Network.tx[8].wlan[0].mac.rx nav:vector ETV
attr interpolationmode linear
attr source navChanged
attr title "network allocation vector, vector"
vector 377 Network.tx[8].wlan[0].mac.dcf packetDrop:vector(packetBytes) ETV
attr interpolationmode none
attr source packetDropped
attr title "packet drops, vector(packetBytes)"
vector 378 Network.tx[8].wlan[0].mac.dcf packetDropNotAddressedToUs:vector(packetBytes) ETV
attr interpolationmode none
attr source packetDropReasonIsNotAddressedToUs(packetDropped)
attr title "packet drops: not addressed to us, vector(packetBytes)"
vector 379 Network.tx[8].wlan[0].mac packetDrop:vector(packetBytes) ETV
attr interpolationmode none
attr source packetDropped
attr title "packet drops, vector(packetBytes)"
vector 380 Network.tx[8].wlan[0].mac packetDropNotAddressedToUs:vector(packetBytes) ETV
attr interpolationmode none
attr source packetDropReasonIsNotAddressedToUs(packetDropped)
attr title "packet drops: not addressed to us, vector(packetBytes)"
vector 381 Network.tx[1].wlan[0].mac packetReceivedFromLower:vector(packetBytes) ETV
attr interpolationmode none
attr title "packets received from lower layer, vector(packetBytes)"
vector 382 Network.tx[1].wlan[0].mac.rx nav:vector ETV
attr interpolationmode linear
attr source navChanged
attr title "network allocation vector, vector"
vector 383 Network.tx[1].wlan[0].mac.dcf packetDrop:vector(packetBytes) ETV
attr interpolationmode none
attr source packetDropped
attr title "packet drops, vector(packetBytes)"
vector 384 Network.tx[1].wlan[0].mac.dcf packetDropNotAddressedToUs:vector(packetBytes) ETV
attr interpolationmode none
attr source packetDropReasonIsNotAddressedToUs(packetDropped)
attr title "packet drops: not addressed to us, vector(packetBytes)"
vector 385 Network.tx[1].wlan[0].mac packetDrop:vector(packetBytes) ETV
attr interpolationmode none
attr source packetDropped
attr title "packet drops, vector(packetBytes)"
vector 386 Network.tx[1].wlan[0].mac packetDropNotAddressedToUs:vector(packetBytes) ETV
attr interpolationmode none
attr source packetDropReasonIsNotAddressedToUs(packetDropped)
attr title "packet drops: not addressed to us, vector(packetBytes)"
vector 387 Network.tx[7].wlan[0].mac.dcf packetSentToPeerWithRetry:vector(packetBytes) ETV
attr interpolationmode none
attr source ieee80211Retry(packetSentToPeer)
attr title "packets sent: with retry, vector(packetBytes)"
vector 388 Network.rx.wlan[0].mac.dcf.recipientMacDataService packetDropDuplicateDetected:vector(packetBytes) ETV
attr interpolationmode none
attr source packetDropReasonIsDuplicateDetected(packetDropped)
attr title "packet drops: duplicate detected, vector(packetBytes)"
vector 389 Network.rx.wlan[0].mac packetDropDuplicateDetected:vector(packetBytes) ETV
attr interpolationmode none
attr source packetDropReasonIsDuplicateDetected(packetDropped)
attr title "packet drops: duplicate detected, vector(packetBytes)"
vector 390 Network.tx[9].wlan[0].mac packetReceivedFromLower:vector(packetBytes) ETV
attr interpolationmode none
attr title "packets received from lower layer, vector(packetBytes)"
vector 391 Network.tx[9].wlan[0].mac.rx nav:vector ETV
attr interpolationmode linear
attr source navChanged
attr title "network allocation vector, vector"
vector 392 Network.tx[9].wlan[0].mac.dcf packetDrop:vector(packetBytes) ETV
attr interpolationmode none
attr source packetDropped
attr title "packet drops, vector(packetBytes)"
vector 393 Network.tx[9].wlan[0].mac.dcf packetDropNotAddressedToUs:vector(packetBytes) ETV
attr interpolationmode none
attr source packetDropReasonIsNotAddressedToUs(packetDropped)
[...]
401	311795 332 1454 7822 0.00752754319 0.106657839494 12 14 162 1796 288880
402	312127 140 1590 9832 0.007947538949 0.112211705898 5 162 162 810 131220
403	312267 84 1590 9832 0.007947538949 0.112211705898 3 162 162 486 78732
404	312351 84 1590 9832 0.007947538949 0.112211705898 3 162 162 486 78732
405	312435 27 1638 1638 0.007991834888 0.007991834888 1 14 14 14 196
406	312462 27 1638 1638 0.007991834888 0.007991834888 1 14 14 14 196
407	312489 27 1638 1638 0.007991834888 0.007991834888 1 14 14 14 196
408	312516 39 1638 1638 0.007991834888 0.007991834888 1 0.003215183771 0.003215183771 0.003215183771 1.0337406681302e-05
409	312555 56 1656 8178 0.008009107525 0.108009107525 2 100 100 200 20000
410	312611 56 1658 8179 0.008009107525 0.108009107525 2 108 108 216 23328
411	312667 56 1661 8182 0.008009107525 0.108009107525 2 134 134 268 35912
412	312723 56 1661 8182 0.008009107525 0.108009107525 2 162 162 324 52488
413	312779 104 1661 8184 0.008009107525 0.108009107525 4 0 1 2 2
414	312883 326 1661 10140 0.008009107525 0.113177773137 12 6 666 1926 781752
415	313209 1349 1661 10454 0.008009107525 0.117016773137 52 0 1 26 26
416	314558 56 1663 8184 0.008009107525 0.108009107525 2 162 162 324 52488
417	314614 52 1663 8184 0.008009107525 0.108009107525 2 0 0 0 0
418	314666 78 1663 8184 0.008009107525 0.108009107525 3 0 1 2 2
419	314744 395 1663 10455 0.008009107525 0.117016773137 12 24000000 24000000 288000000 6.912e+15
420	315139 335 1663 10455 0.008009107525 0.117016773137 12 162 162 1944 314928
421	315474 595 1663 10455 0.008009107525 0.117016773137 23 0 1 12 12
422	316069 1190 1664 10457 0.008009107525 0.117016773137 46 0 2 47 71
423	317259 306 1685 10111 0.008091107525 0.113122773137 11 162 162 1782 288684
424	317565 306 1685 10111 0.008091107525 0.113122773137 11 162 162 1782 288684
425	317871 56 1685 8206 0.008091107525 0.108091107525 2 162 162 324 52488
426	317927 56 1708 8275 0.008360787688 0.108360787688 2 100 100 200 20000
427	317983 56 1710 8276 0.008360787688 0.108360787688 2 108 108 216 23328
428	318039 56 1713 8279 0.008360787688 0.108360787688 2 134 134 268 35912
429	318095 56 1713 8279 0.008360787688 0.108360787688 2 162 162 324 52488
430	318151 104 1713 8281 0.008360787688 0.108360787688 4 0 1 2 2
431	318255 81 1713 8389 0.008360787688 0.108497787688 3 23 32 83 2337
432	318336 208 1713 8934 0.008360787688 0.109273739499 8 0 1 4 4
433	318544 56 1715 8281 0.008360787688 0.108360787688 2 162 162 324 52488
434	318600 52 1715 8281 0.008360787688 0.108360787688 2 0 0 0 0
435	318652 104 1715 9035 0.008360787688 0.109400121253 4 0 1 2 2
436	318756 99 1715 8935 0.008360787688 0.109273739499 3 24000000 24000000 72000000 1.728e+15
437	318855 84 1715 8935 0.008360787688 0.109273739499 3 162 162 486 78732
438	318939 156 1715 9035 0.008360787688 0.109400121253 6 0 1 3 3
439	319095 312 1716 8981 0.008360787688 0.109355739499 12 0 2 12 18
440	319407 56 1737 8303 0.008442657441 0.108442657441 2 100 100 200 20000
441	319463 56 1739 8304 0.008442657441 0.108442657441 2 108 108 216 23328
442	319519 56 1742 8307 0.008442657441 0.108442657441 2 134 134 268 35912
443	319575 56 1742 8307 0.008442657441 0.108442657441 2 162 162 324 52488
444	319631 104 1742 8590 0.008442657441 0.108857261505 4 0 1 2 2
445	319735 108 1742 8307 0.008442657441 0.108442657441 4 16 40 103 3001
446	319843 468 1742 8589 0.008442657441 0.108857261505 18 0 1 9 9
447	320311 56 1744 8590 0.008442657441 0.108857261505 2 162 162 324 52488
448	320367 65 1744 8590 0.008442657441 0.108857261505 2 0 0.000414604064 0.000414604064 1.7189652988532e-07
449	320432 104 1744 8713 0.008442657441 0.108983619025 4 0 1 2 2
450	320536 132 1744 8590 0.008442657441 0.108857261505 4 24000000 24000000 96000000 2.304e+15
451	320668 112 1744 8590 0.008442657441 0.108857261505 4 162 162 648 104976
452	320780 208 1744 8713 0.008442657441 0.108983619025 8 0 1 4 4
453	320988 416 1745 8613 0.008442657441 0.108939261505 16 0 2 16 24
454	321404 84 1747 8980 0.008442787688 0.109355739499 3 162 162 486 78732
455	321488 84 1747 8980 0.008442787688 0.109355739499 3 162 162 486 78732
456	321572 56 1747 8308 0.008442787688 0.108442787688 2 162 162 324 52488
457	321628 83 1752 8983 0.008442981097 0.109355930377 3 14 162 338 52684
458	321711 83 1752 8983 0.008442981097 0.109355930377 3 14 162 338 52684
459	321794 55 1752 5977 0.008442981097 0.036751586404 2 14 162 176 26440
460	321849 431 1752 10478 0.008442981097 0.117033930377 13 24000000 24000000 312000000 7.488e+15
461	322280 56 1752 8983 0.008442981097 0.109355930377 2 134 134 268 35912
462	322336 56 1756 8987 0.008442981097 0.109355930377 2 134 134 268 35912
463	322392 56 1756 8987 0.008442981097 0.109355930377 2 162 162 324 52488
464	322448 104 1756 9080 0.008442981097 0.109549930377 4 0 1 2 2
465	322552 298 1756 10421 0.008442981097 0.115754930377 11 0 941 1627 988097
466	322850 1407 1756 10477 0.008442981097 0.117033930377 54 0 1 27 27
467	324257 364 1817 10478 0.008452981097 0.117033930377 13 14 162 1810 289076
468	324621 1306 1818 10480 0.008452981097 0.117033930377 50 0 2 51 77
469	325927 56 1839 8356 0.008472517373 0.108472517373 2 100 100 200 20000
470	325983 56 1841 8357 0.008472517373 0.108472517373 2 108 108 216 23328
471	326039 56 1844 8360 0.008472517373 0.108472517373 2 134 134 268 35912
472	326095 56 1844 8360 0.008472517373 0.108472517373 2 162 162 324 52488
473	326151 104 1844 8362 0.008472517373 0.108472517373 4 0 1 2 2
474	326255 327 1844 10245 0.008472517373 0.115279251921 12 0 321 1096 234040
475	326582 335 1846 10370 0.008486981097 0.115699930377 12 14 162 1648 262832
476	326917 335 1846 10370 0.008486981097 0.115699930377 12 14 162 1648 262832
477	327252 110 1846 9130 0.008486981097 0.109631930377 4 14 162 352 52880
478	327362 54 1850 9035 0.008487174503 0.109400121253 2 14 14 28 392
479	327416 54 1850 9035 0.008487174503 0.109400121253 2 14 14 28 392
480	327470 54 1850 9035 0.008487174503 0.109400121253 2 14 14 28 392
481	327524 78 1850 9035 0.008487174503 0.109400121253 2 0.000126386815 0.001039333565 0.00116572038 1.0961878863415e-06
482	327602 112 1871 8612 0.008524657441 0.108939261505 4 162 162 648 104976
483	327714 112 1871 8612 0.008524657441 0.108939261505 4 162 162 648 104976
484	327826 56 1871 8612 0.008524657441 0.108939261505 2 162 162 324 52488
485	327882 83 1874 8991 0.008524840991 0.10935603876 3 162 162 486 78732
486	327965 56 1876 9697 0.008524958013 0.111564610913 2 162 162 324 52488
487	328021 756 1896 10245 0.008530226043 0.115279251921 29 0 1 15 15
488	328777 28 1897 1897 0.008530226043 0.008530226043 1 162 162 162 26244
489	328805 56 1943 8487 0.008700872511 0.108700872511 2 100 100 200 20000
490	328861 56 1945 8488 0.008700872511 0.108700872511 2 108 108 216 23328
491	328917 56 1948 8491 0.008700872511 0.108700872511 2 134 134 268 35912
492	328973 56 1948 8491 0.008700872511 0.108700872511 2 162 162 324 52488
493	329029 104 1948 8493 0.008700872511 0.108700872511 4 0 1 2 2
494	329133 189 1948 8587 0.008700872511 0.108837872511 7 2 489 752 269264
495	329322 364 1948 8685 0.008700872511 0.108976872511 14 0 1 7 7
496	329686 56 1950 8493 0.008700872511 0.108700872511 2 162 162 324 52488
497	329742 52 1950 8493 0.008700872511 0.108700872511 2 0 0 0 0
498	329794 104 1950 8813 0.008700872511 0.109103356195 4 0 1 2 2
499	329898 231 1950 8686 0.008700872511 0.108976872511 7 24000000 24000000 168000000 4.032e+15
500	330129 196 1950 8686 0.008700872511 0.108976872511 7 162 162 1134 183708
501	330325 364 1950 8813 0.008700872511 0.109103356195 14 0 1 7 7
502	330689 728 1951 8758 0.008700872511 0.109058872511 28 0 2 28 42
503	331417 250 1972 10111 0.008747107525 0.113122773137 9 162 162 1458 236196
504	331667 167 1975 8393 0.008747375611 0.108527380095 6 14 162 824 131416
505	331834 167 1975 8393 0.008747375611 0.108527380095 6 14 162 824 131416
506	332001 140 1975 8393 0.008747375611 0.108527380095 5 162 162 810 131220
507	332141 330 1975 9971 0.008747375611 0.112764500372 10 24000000 24000000 240000000 5.76e+15
508	332471 56 1975 8393 0.008747375611 0.108527380095 2 134 134 268 35912
509	332527 56 1979 8397 0.008747375611 0.108527380095 2 134 134 268 35912
510	332583 56 1979 8397 0.008747375611 0.108527380095 2 162 162 324 52488
511	332639 104 1979 8501 0.008747375611 0.108701380095 4 0 1 2 2
512	332743 162 1979 10042 0.008747375611 0.112901500372 6 4 383 539 154423
513	332905 495 1979 10042 0.008747375611 0.112901500372 19 0 1 10 10
514	333400 84 1982 7495 0.008747577776 0.105291242671 3 162 162 486 78732
515	333484 56 1986 3122 0.008747825093 0.011284551271 2 162 162 324 52488
516	333540 275 2001 9971 0.008757375611 0.112764500372 10 14 162 880 132200
517	333815 1042 2002 10017 0.008757375611 0.112846500372 40 0 2 40 60
518	334857 196 2023 8757 0.008782872511 0.109058872511 7 162 162 1134 183708
519	335053 196 2023 8757 0.008782872511 0.109058872511 7 162 162 1134 183708
520	335249 56 2023 8538 0.008782872511 0.108782872511 2 162 162 324 52488
521	335305 276 2045 10016 0.008791375611 0.112846500372 10 14 162 880 132200
522	335581 276 2045 10016 0.008791375611 0.112846500372 10 14 162 880 132200
523	335857 191 2045 8547 0.008791375611 0.108783380095 7 14 162 394 53468
524	336048 56 2093 8501 0.008921375611 0.108701380095 2 162 162 324 52488
525	336104 66 2093 8501 0.008921375611 0.108701380095 2 0.000174 0.000174 0.000348 6.0552e-08
526	336170 78 2093 8501 0.008921375611 0.108701380095 3 0 1 2 2
527	336248 261 2093 10042 0.008921375611 0.112901500372 10 0 1 5 5
528	336509 27 2167 2167 0.00900365865 0.00900365865 1 162 162 162 26244
529	336536 27 2167 2167 0.00900365865 0.00900365865 1 162 162 162 26244
530	336563 27 2167 2167 0.00900365865 0.00900365865 1 162 162 162 26244
531	336590 259 2167 6617 0.00900365865 0.054450409439 8 24000000 24000000 192000000 4.608e+15
532	336849 27 2167 2167 0.00900365865 0.00900365865 1 134 134 134 17956
533	336876 27 2171 2171 0.00900365865 0.00900365865 1 134 134 134 17956
534	336903 27 2171 2171 0.00900365865 0.00900365865 1 162 162 162 26244
535	336930 50 2171 2559 0.00900365865 0.00984594993 2 0 1 1 1
536	336980 187 2171 6247 0.00900365865 0.039838673404 7 28 977 2117 1511631
537	337167 1437 2171 6616 0.00900365865 0.054450409439 56 0 1 28 28
538	338604 56 2191 9080 0.009013616366 0.109549930377 2 162 162 324 52488
539	338660 72 2191 9080 0.009013616366 0.109549930377 2 0.000194 0.000570635269 0.000764635269 3.632606102267e-07
540	338732 78 2191 9080 0.009013616366 0.109549930377 3 0 1 2 2
541	338810 549 2191 10478 0.009013616366 0.117033930377 21 0 1 11 11
542	339359 218 2194 6617 0.00901365865 0.054450409439 8 14 162 1148 183904
543	339577 812 2195 6640 0.00901365865 0.054532409439 32 0 2 32 48
544	340389 140 2235 8757 0.009018872511 0.109058872511 5 162 162 810 131220
545	340529 218 2259 6639 0.00904765865 0.054532409439 8 14 162 1148 183904
546	340747 218 2259 6639 0.00904765865 0.054532409439 8 14 162 1148 183904
547	340965 53 2259 2628 0.00904765865 0.00992794993 2 14 162 176 26440
548	341018 27 2262 2262 0.009047941689 0.009047941689 1 14 14 14 196
549	341045 39 2262 2262 0.009047941689 0.009047941689 1 0.000126566078 0.000126566078 0.000126566078 1.6018972100302e-08
550	341084 1431 2283 10394 0.009095616366 0.115743930377 51 0 4.4e-05 0.000748 3.2912e-08
551	342515 56 2315 8362 0.009214226043 0.108472517373 2 162 162 324 52488
552	342571 64 2315 8362 0.009214226043 0.108472517373 2 0 0.00074170867 0.00074170867 5.5013175115317e-07
553	342635 78 2315 8362 0.009214226043 0.108472517373 3 0 1 2 2
554	342713 364 2315 10201 0.009214226043 0.115142251921 11 24000000 24000000 264000000 6.336e+15
555	343077 309 2315 10201 0.009214226043 0.115142251921 11 162 162 1782 288684
556	343386 574 2315 10245 0.009214226043 0.115279251921 22 0 1 11 11
557	343960 1148 2316 10224 0.009214226043 0.115224251921 44 0 2 44 66
558	345108 309 2337 10223 0.009296226043 0.115224251921 11 162 162 1782 288684
559	345417 309 2337 10223 0.009296226043 0.115224251921 11 162 162 1782 288684
560	345726 56 2337 8439 0.009296226043 0.108554517373 2 162 162 324 52488
561	345782 225 2385 10370 0.009431616366 0.115699930377 8 162 162 1296 209952
562	346007 56 2437 9102 0.009571551543 0.109571551543 2 100 100 200 20000
563	346063 56 2439 9103 0.009571551543 0.109571551543 2 108 108 216 23328
564	346119 56 2442 9106 0.009571551543 0.109571551543 2 134 134 268 35912
565	346175 56 2442 9106 0.009571551543 0.109571551543 2 162 162 324 52488
566	346231 104 2442 9156 0.009571551543 0.109649856923 4 0 1 2 2
567	346335 330 2442 10015 0.009571551543 0.112834856923 12 19 732 2601 1357201
568	346665 967 2445 10133 0.009611857469 0.113124133233 37 0 1 19 19
569	347632 84 2517 5265 0.009828676015 0.030773218583 3 162 162 486 78732
570	347716 84 2517 5265 0.009828676015 0.030773218583 3 162 162 486 78732
571	347800 27 2559 2559 0.00984594993 0.00984594993 1 162 162 162 26244
572	347827 37 2559 2559 0.00984594993 0.00984594993 1 0.00084229128 0.00084229128 0.00084229128 7.0945460036404e-07
573	347864 51 2559 6671 0.00984594993 0.054587409439 2 0 1 1 1
574	347915 356 2559 6671 0.00984594993 0.054587409439 14 0 1 7 7
575	348271 81 2585 7501 0.009872944154 0.105291667481 3 14 162 190 26636
576	348352 56 2605 2839 0.009888058193 0.010624058193 2 162 162 324 52488
577	348408 56 2656 9156 0.010085857469 0.109649856923 2 162 162 324 52488
578	348464 76 2656 9156 0.010085857469 0.109649856923 2 7.830538e-05 0.000514305926 0.000592611306 2.7064231805566e-07
579	348540 78 2656 9156 0.010085857469 0.109649856923 3 0 1 2 2
580	348618 363 2656 9948 0.010085857469 0.112697856923 11 24000000 24000000 264000000 6.336e+15
581	348981 308 2656 9948 0.010085857469 0.112697856923 11 162 162 1782 288684
582	349289 573 2656 10015 0.010085857469 0.112834856923 22 0 1 11 11
583	349862 1144 2657 9994 0.010085857469 0.112779856923 44 0 2 44 66
584	351006 308 2678 9993 0.010167857469 0.112779856923 11 162 162 1782 288684
585	351314 308 2678 9993 0.010167857469 0.112779856923 11 162 162 1782 288684
586	351622 56 2678 9253 0.010167857469 0.109731856923 2 162 162 324 52488
587	351678 277 2681 9807 0.010167996166 0.112143995078 10 162 162 1620 262440
588	351955 278 2681 9807 0.010167996166 0.112143995078 10 162 162 1620 262440
589	352233 250 2681 9807 0.010167996166 0.112143995078 9 162 162 1458 236196
590	352483 305 2681 9807 0.010167996166 0.112143995078 11 162 162 1782 288684
591	352788 250 2681 9807 0.010167996166 0.112143995078 9 162 162 1458 236196
592	353038 253 2726 10223 0.010372226043 0.115224251921 9 162 162 1458 236196
593	353291 54 2940 8713 0.010668425087 0.108983619025 2 14 14 28 392
594	353345 54 2940 8713 0.010668425087 0.108983619025 2 14 14 28 392
595	353399 54 2940 8713 0.010668425087 0.108983619025 2 14 14 28 392
596	353453 77 2940 8713 0.010668425087 0.108983619025 2 0.00012635752 0.002225767646 0.002352125166 4.9700078368409e-06
597	353530 78 2968 6549 0.010678525916 0.053120609577 2 0.000126533702 0.005289271321 0.005415805023 2.7992401884895e-05
598	353608 252 3011 9993 0.010803857469 0.112779856923 9 162 162 1458 236196
599	353860 165 3108 6639 0.01128394993 0.054532409439 6 162 162 972 157464
600	354025 55 3333 3380 0.012440876211 0.012484964293 2 14 162 176 26440
601	354080 56 3499 4579 0.012957610798 0.023130364132 2 162 162 324 52488
602	354136 56 3499 4579 0.012957610798 0.023130364132 2 162 162 324 52488
603	354192 54 3612 8471 0.01353510806 0.108572101914 2 14 162 176 26440
604	354246 54 3612 5585 0.01353510806 0.03401810806 2 162 162 324 52488
605	354300 27 3612 3612 0.01353510806 0.01353510806 1 162 162 162 26244
606	354327 81 3612 8471 0.01353510806 0.108572101914 3 14 162 338 52684
607	354408 27 3612 3612 0.01353510806 0.01353510806 1 162 162 162 26244
608	354435 33 4328 4328 0.019287226043 0.019287226043 1 0.010073 0.010073 0.010073 0.000101465329
609	354468 28 4328 4328 0.019287226043 0.019287226043 1 162 162 162 26244
610	354496 28 4328 4328 0.019287226043 0.019287226043 1 162 162 162 26244
611	354524 39 4643 4643 0.023184987497 0.023184987497 1 0.019341170415 0.019341170415 0.019341170415 0.00037408087302207
612	354563 28 4643 4643 0.023184987497 0.023184987497 1 162 162 162 26244
613	354591 28 4643 4643 0.023184987497 0.023184987497 1 162 162 162 26244
614	354619 54 4723 8813 0.024231356697 0.109103356195 2 14 14 28 392
615	354673 54 4723 8813 0.024231356697 0.109103356195 2 14 14 28 392
616	354727 54 4723 8813 0.024231356697 0.109103356195 2 14 14 28 392
617	354781 78 4723 8813 0.024231356697 0.109103356195 2 0.000402483684 0.015530484186 0.01593296787 0.00024135793216748
618	354859 84 4820 8768 0.024543697149 0.109059341267 3 162 162 486 78732
619	354943 280 4915 10271 0.025819114604 0.11549949397 10 162 162 1620 262440
620	355223 77 5039 6930 0.027297803963 0.101689828777 2 0.00112269902 0.026730674206 0.027853373226 0.00071578939659682
621	355300 28 5039 5039 0.027297803963 0.027297803963 1 162 162 162 26244
622	355328 28 5039 5039 0.027297803963 0.027297803963 1 162 162 162 26244
623	355356 39 5238 5238 0.030615273269 0.030615273269 1 0.024133554503 0.024133554503 0.024133554503 0.00058242845294927
624	355395 28 5238 5238 0.030615273269 0.030615273269 1 162 162 162 26244
625	355423 28 5238 5238 0.030615273269 0.030615273269 1 162 162 162 26244
626	355451 56 5371 6878 0.032782168969 0.101645479271 2 162 162 324 52488
627	355507 77 5433 6775 0.032836401772 0.056546213595 2 0.02786020729 0.044141356891 0.072001564181 0.0027246505384204
628	355584 56 5433 6775 0.032836401772 0.056546213595 2 162 162 324 52488
629	355640 56 5433 6775 0.032836401772 0.056546213595 2 162 162 324 52488
630	355696 38 5585 5585 0.03401810806 0.03401810806 1 0.029218336346 0.029218336346 0.029218336346 0.00085371117882798
631	355734 27 5585 5585 0.03401810806 0.03401810806 1 162 162 162 26244
632	355761 27 5585 5585 0.03401810806 0.03401810806 1 162 162 162 26244
633	355788 168 5611 9544 0.034474168969 0.111055435472 6 162 162 972 157464
634	355956 28 5614 5614 0.034474499181 0.034474499181 1 162 162 162 26244
635	355984 27 5696 5696 0.034518976905 0.034518976905 1 14 14 14 196
636	356011 39 5977 5977 0.036751586404 0.036751586404 1 0.027737970038 0.027737970038 0.027737970038 0.00076939498182899
637	356050 39 6296 6296 0.040542399413 0.040542399413 1 0.032533291888 0.032533291888 0.032533291888 0.0010584150810698
638	356089 28 6296 6296 0.040542399413 0.040542399413 1 162 162 162 26244
639	356117 28 6296 6296 0.040542399413 0.040542399413 1 162 162 162 26244
640	356145 85 6398 10276 0.052900075875 0.115499801501 3 162 162 486 78732
641	356230 39 6615 6615 0.054387411778 0.054387411778 1 0.044301554309 0.044301554309 0.044301554309 0.0019626277141933
642	356269 28 6615 6615 0.054387411778 0.054387411778 1 162 162 162 26244
643	356297 28 6615 6615 0.054387411778 0.054387411778 1 162 162 162 26244
644	356325 39 6671 6671 0.054587409439 0.054587409439 1 0.044741459509 0.044741459509 0.044741459509 0.0020017981989955
645	356364 28 6671 6671 0.054587409439 0.054587409439 1 162 162 162 26244
646	356392 28 6671 6671 0.054587409439 0.054587409439 1 162 162 162 26244
647	356420 27 6930 6930 0.101689828777 0.101689828777 1 14 14 14 196
648	356447 27 6930 6930 0.101689828777 0.101689828777 1 14 14 14 196
649	356474 27 6930 6930 0.101689828777 0.101689828777 1 14 14 14 196
650	356501 19 7570 7570 0.1 0.1 1 48000 48000 48000 2304000000
651	356520 27 8471 8471 0.108572101914 0.108572101914 1 14 14 14 196
652	356547 28 8615 8615 0.108939440267 0.108939440267 1 162 162 162 26244
653	356575 28 8980 8980 0.109355739499 0.109355739499 1 162 162 162 26244
654	356603 28 8983 8983 0.109355930377 0.109355930377 1 162 162 162 26244
655	356631 56 9209 9314 0.109679925299 0.109808500372 2 162 162 324 52488
656	356687 27 9256 9256 0.10973199508 0.10973199508 1 162 162 162 26244
657	356714 28 9405 9405 0.110435421884 0.110435421884 1 162 162 162 26244
658	356742 28 9405 9405 0.110435421884 0.110435421884 1 162 162 162 26244
659	356770 85 9496 10016 0.110674500372 0.112846500372 3 162 162 486 78732

