version 2
run Completa-0-20200527-16:51:00-3274
attr configname Completa
attr datetime 20200527-16:51:00
attr experiment Completa
attr inifile new.ini
attr iterationvars ""
attr iterationvarsf ""
attr measurement ""
attr network Network
attr processid 3274
attr repetition 0
attr replication #0
attr resultdir results
attr runnumber 0
attr seedset 0
param **.num_tx 11
param **.num_frw 8
param **.rx.mobility.initialZ 0m
param **.frw[*].mobility.initialZ 0m
param **.tx[*].mobility.initialZ 0m
param **.rx.mobility.initialX 470m
param **.rx.mobility.initialY 200m
param **.frw[0].mobility.initialX 450m
param **.frw[0].mobility.initialY 200m
param **.frw[1].mobility.initialX 450m
param **.frw[1].mobility.initialY 300m
param **.frw[2].mobility.initialX 550m
param **.frw[2].mobility.initialY 200m
param **.frw[3].mobility.initialX 550m
param **.frw[3].mobility.initialY 300m
param **.frw[4].mobility.initialX 380m
param **.frw[4].mobility.initialY 130m
param **.frw[5].mobility.initialX 610m
param **.frw[5].mobility.initialY 130m
param **.frw[6].mobility.initialX 610m
param **.frw[6].mobility.initialY 360m
param **.frw[7].mobility.initialX 380m
param **.frw[7].mobility.initialY 360m
param **.rx.mobility.typename "\"StationaryMobility\""
param **.rx.mobility.initFromDisplayString false
param **.frw[*].mobility.typename "\"StationaryMobility\""
param **.frw[*].mobility.initFromDisplayString false
param **.tx[*].mobility.typename "\"MassMobility\""
param **.tx[*].mobility.initFromDisplayString false
param **.tx[*].mobility.changeInterval "truncnormal(2s, 0.5s)"
param **.tx[*].mobility.angleDelta "normal(0deg, 30deg)"
param **.tx[*].mobility.speed "truncnormal(20mps, 8mps)"
param **.tx[*].mobility.updateInterval 100ms
param **.tx[6].generic.nextHop.nextHopParam "\"frw[0].wlan[0]\""
param **.tx[3].generic.nextHop.nextHopParam "\"frw[4].wlan[0]\""
param **.tx[7].generic.nextHop.nextHopParam "\"frw[4].wlan[0]\""
param **.tx[8].generic.nextHop.nextHopParam "\"frw[4].wlan[0]\""
param **.tx[4].generic.nextHop.nextHopParam "\"frw[5].wlan[0]\""
param **.tx[9].generic.nextHop.nextHopParam "\"frw[5].wlan[0]\""
param **.tx[10].generic.nextHop.nextHopParam "\"frw[6].wlan[0]\""
param **.tx[0].generic.nextHop.nextHopParam "\"frw[7].wlan[0]\""
param **.tx[2].generic.nextHop.nextHopParam "\"frw[7].wlan[0]\""
param **.tx[1].generic.nextHop.nextHopParam "\"frw[7].wlan[0]\""
param **.tx[5].generic.nextHop.nextHopParam "\"frw[7].wlan[0]\""
param **.frw[0..3].generic.nextHop.nextHopParam "\"rx.wlan[0]\""
param **.frw[4].generic.nextHop.nextHopParam "\"frw[0].wlan[0]\""
param **.frw[5].generic.nextHop.nextHopParam "\"frw[2].wlan[0]\""
param **.frw[6].generic.nextHop.nextHopParam "\"frw[3].wlan[0]\""
param **.frw[7].generic.nextHop.nextHopParam "\"frw[4].wlan[0]\""
param **.rx.generic.nextHop.nextHopParam "\"null\""
param **.constraintAreaMaxX 700m
param **.constraintAreaMaxY 700m
param **.constraintAreaMaxZ 0m
param **.constraintAreaMinX 0m
param **.constraintAreaMinY 0m
param **.constraintAreaMinZ 0m
param **.radioMedium.pathLoss.typename "\"LogNormalShadowing\""
param **.radioMedium.pathLoss.alpha 4.03
param **.radioMedium.pathLoss.sigma 4.98
param **.numApps 1
param **.rx.app[0].typename "\"UdpSink\""
param **.rx.app[0].localPort 2345
param **.frw[*].app[0].typename "\"UdpSink\""
param **.frw[*].app[0].localPort 2345
param **.tx[*].app[0].typename "\"UdpBasicApp\""
param **.tx[*].app[0].destPort 2345
param **.tx[*].app[0].destAddresses "\"rx\""
param **.tx[*].app[0].messageLength 100B
param **.tx[*].app[0].startTime "uniform(0s, 10ms)"
param **.tx[*].app[0].sendInterval 100ms
param **.tx[*].app[0].packetName "\"Data\""
param **.networkConfiguratorModule "\"networkConfigurator\""
param **.networkConfigurator.config "xmldoc(\"scenario.xml\")"
param **.tx[*].hasIpv4 false
param **.tx[*].hasIpv6 false
param **.tx[*].hasGn true
param **.tx[*].generic.typename "\"NextHopNetworkLayer\""
param **.tx[*].generic.nextHop.hopLimit 4
param **.frw[*].hasIpv4 false
param **.frw[*].hasIpv6 false
param **.frw[*].hasGn true
param **.frw[*].generic.typename "\"NextHopNetworkLayer\""
param **.frw[*].generic.nextHop.hopLimit 4
param **.rx.hasIpv4 false
param **.rx.hasIpv6 false
param **.rx.hasGn true
param **.rx.generic.typename "\"NextHopNetworkLayer\""
param **.networkConfigurator.typename "\"NextHopNetworkConfigurator\""
param *.tx[*].wlan[2].radio.displayCommunicationRange true
param *.visualizer.sceneVisualizer.descriptionFigure "\"title\""
param *.visualizer.mediumVisualizer.displaySignals true
param *.visualizer.physicalLinkVisualizer.displayLinks true
param *.tx[*].wlan[0].radio.transmitter.communicationRange 500m
param *.tx[*].wlan[0].radio.displayCommunicationRange true

vector 0 Network.tx[0].wlan[0].radio radioMode:vector ETV
attr interpolationmode sample-hold
attr source radioModeChanged
attr title "Radio mode, vector"
vector 1 Network.tx[0].wlan[0].radio radioChannel:vector ETV
attr interpolationmode sample-hold
attr source radioChannelChanged
attr title "Radio channel, vector"
vector 2 Network.tx[1].wlan[0].radio radioMode:vector ETV
attr interpolationmode sample-hold
attr source radioModeChanged
attr title "Radio mode, vector"
vector 3 Network.tx[1].wlan[0].radio radioChannel:vector ETV
attr interpolationmode sample-hold
attr source radioChannelChanged
attr title "Radio channel, vector"
vector 4 Network.tx[2].wlan[0].radio radioMode:vector ETV
attr interpolationmode sample-hold
attr source radioModeChanged
attr title "Radio mode, vector"
vector 5 Network.tx[2].wlan[0].radio radioChannel:vector ETV
attr interpolationmode sample-hold
attr source radioChannelChanged
attr title "Radio channel, vector"
vector 6 Network.tx[3].wlan[0].radio radioMode:vector ETV
attr interpolationmode sample-hold
attr source radioModeChanged
attr title "Radio mode, vector"
vector 7 Network.tx[3].wlan[0].radio radioChannel:vector ETV
attr interpolationmode sample-hold
attr source radioChannelChanged
attr title "Radio channel, vector"
vector 8 Network.tx[4].wlan[0].radio radioMode:vector ETV
attr interpolationmode sample-hold
attr source radioModeChanged
attr title "Radio mode, vector"
vector 9 Network.tx[4].wlan[0].radio radioChannel:vector ETV
attr interpolationmode sample-hold
attr source radioChannelChanged
attr title "Radio channel, vector"
vector 10 Network.tx[5].wlan[0].radio radioMode:vector ETV
attr interpolationmode sample-hold
attr source radioModeChanged
attr title "Radio mode, vector"
vector 11 Network.tx[5].wlan[0].radio radioChannel:vector ETV
attr interpolationmode sample-hold
attr source radioChannelChanged
attr title "Radio channel, vector"
vector 12 Network.tx[6].wlan[0].radio radioMode:vector ETV
attr interpolationmode sample-hold
attr source radioModeChanged
attr title "Radio mode, vector"
vector 13 Network.tx[6].wlan[0].radio radioChannel:vector ETV
attr interpolationmode sample-hold
attr source radioChannelChanged
attr title "Radio channel, vector"
vector 14 Network.tx[7].wlan[0].radio radioMode:vector ETV
attr interpolationmode sample-hold
attr source radioModeChanged
attr title "Radio mode, vector"
vector 15 Network.tx[7].wlan[0].radio radioChannel:vector ETV
attr interpolationmode sample-hold
attr source radioChannelChanged
attr title "Radio channel, vector"
vector 16 Network.tx[8].wlan[0].radio radioMode:vector ETV
attr interpolationmode sample-hold
attr source radioModeChanged
attr title "Radio mode, vector"
vector 17 Network.tx[8].wlan[0].radio radioChannel:vector ETV
attr interpolationmode sample-hold
attr source radioChannelChanged
attr title "Radio channel, vector"
vector 18 Network.tx[9].wlan[0].radio radioMode:vector ETV
attr interpolationmode sample-hold
attr source radioModeChanged
attr title "Radio mode, vector"
vector 19 Network.tx[9].wlan[0].radio radioChannel:vector ETV
attr interpolationmode sample-hold
attr source radioChannelChanged
attr title "Radio channel, vector"
vector 20 Network.tx[10].wlan[0].radio radioMode:vector ETV
attr interpolationmode sample-hold
attr source radioModeChanged
attr title "Radio mode, vector"
vector 21 Network.tx[10].wlan[0].radio radioChannel:vector ETV
attr interpolationmode sample-hold
attr source radioChannelChanged
attr title "Radio channel, vector"
vector 22 Network.rx.wlan[0].radio radioMode:vector ETV
attr interpolationmode sample-hold
attr source radioModeChanged
attr title "Radio mode, vector"
vector 23 Network.rx.wlan[0].radio radioChannel:vector ETV
attr interpolationmode sample-hold
attr source radioChannelChanged
attr title "Radio channel, vector"
vector 24 Network.frw[0].wlan[0].radio radioMode:vector ETV
attr interpolationmode sample-hold
attr source radioModeChanged
attr title "Radio mode, vector"
vector 25 Network.frw[0].wlan[0].radio radioChannel:vector ETV
attr interpolationmode sample-hold
attr source radioChannelChanged
attr title "Radio channel, vector"
vector 26 Network.frw[1].wlan[0].radio radioMode:vector ETV
attr interpolationmode sample-hold
attr source radioModeChanged
attr title "Radio mode, vector"
vector 27 Network.frw[1].wlan[0].radio radioChannel:vector ETV
attr interpolationmode sample-hold
attr source radioChannelChanged
attr title "Radio channel, vector"
vector 28 Network.frw[2].wlan[0].radio radioMode:vector ETV
attr interpolationmode sample-hold
attr source radioModeChanged
attr title "Radio mode, vector"
vector 29 Network.frw[2].wlan[0].radio radioChannel:vector ETV
attr interpolationmode sample-hold
attr source radioChannelChanged
attr title "Radio channel, vector"
vector 30 Network.frw[3].wlan[0].radio radioMode:vector ETV
attr interpolationmode sample-hold
attr source radioModeChanged
attr title "Radio mode, vector"
vector 31 Network.frw[3].wlan[0].radio radioChannel:vector ETV
attr interpolationmode sample-hold
attr source radioChannelChanged
attr title "Radio channel, vector"
vector 32 Network.frw[4].wlan[0].radio radioMode:vector ETV
attr interpolationmode sample-hold
attr source radioModeChanged
attr title "Radio mode, vector"
vector 33 Network.frw[4].wlan[0].radio radioChannel:vector ETV
attr interpolationmode sample-hold
attr source radioChannelChanged
attr title "Radio channel, vector"
vector 34 Network.frw[5].wlan[0].radio radioMode:vector ETV
attr interpolationmode sample-hold
attr source radioModeChanged
attr title "Radio mode, vector"
vector 35 Network.frw[5].wlan[0].radio radioChannel:vector ETV
attr interpolationmode sample-hold
attr source radioChannelChanged
attr title "Radio channel, vector"
vector 36 Network.frw[6].wlan[0].radio radioMode:vector ETV
attr interpolationmode sample-hold
attr source radioModeChanged
attr title "Radio mode, vector"
vector 37 Network.frw[6].wlan[0].radio radioChannel:vector ETV
attr interpolationmode sample-hold
attr source radioChannelChanged
attr title "Radio channel, vector"
vector 38 Network.frw[7].wlan[0].radio radioMode:vector ETV
attr interpolationmode sample-hold
attr source radioModeChanged
attr title "Radio mode, vector"
vector 39 Network.frw[7].wlan[0].radio radioChannel:vector ETV
attr interpolationmode sample-hold
attr source radioChannelChanged
attr title "Radio channel, vector"
vector 40 Network.tx[0].wlan[0].radio receptionState:vector ETV
attr interpolationmode sample-hold
attr source receptionStateChanged
attr title "Radio reception state, vector"
vector 41 Network.tx[1].wlan[0].radio receptionState:vector ETV
attr interpolationmode sample-hold
attr source receptionStateChanged
attr title "Radio reception state, vector"
vector 42 Network.tx[2].wlan[0].radio receptionState:vector ETV
attr interpolationmode sample-hold
attr source receptionStateChanged
attr title "Radio reception state, vector"
vector 43 Network.tx[3].wlan[0].radio receptionState:vector ETV
attr interpolationmode sample-hold
attr source receptionStateChanged
attr title "Radio reception state, vector"
vector 44 Network.tx[4].wlan[0].radio receptionState:vector ETV
attr interpolationmode sample-hold
attr source receptionStateChanged
attr title "Radio reception state, vector"
vector 45 Network.tx[5].wlan[0].radio receptionState:vector ETV
attr interpolationmode sample-hold
attr source receptionStateChanged
attr title "Radio reception state, vector"
vector 46 Network.tx[6].wlan[0].radio receptionState:vector ETV
attr interpolationmode sample-hold
attr source receptionStateChanged
attr title "Radio reception state, vector"
vector 47 Network.tx[7].wlan[0].radio receptionState:vector ETV
attr interpolationmode sample-hold
attr source receptionStateChanged
attr title "Radio reception state, vector"
vector 48 Network.tx[8].wlan[0].radio receptionState:vector ETV
attr interpolationmode sample-hold
attr source receptionStateChanged
attr title "Radio reception state, vector"
vector 49 Network.tx[9].wlan[0].radio receptionState:vector ETV
attr interpolationmode sample-hold
attr source receptionStateChanged
attr title "Radio reception state, vector"
vector 50 Network.tx[10].wlan[0].radio receptionState:vector ETV
attr interpolationmode sample-hold
attr source receptionStateChanged
attr title "Radio reception state, vector"
vector 51 Network.rx.wlan[0].radio receptionState:vector ETV
attr interpolationmode sample-hold
attr source receptionStateChanged
attr title "Radio reception state, vector"
vector 52 Network.frw[0].wlan[0].radio receptionState:vector ETV
attr interpolationmode sample-hold
attr source receptionStateChanged
attr title "Radio reception state, vector"
vector 53 Network.frw[1].wlan[0].radio receptionState:vector ETV
attr interpolationmode sample-hold
attr source receptionStateChanged
attr title "Radio reception state, vector"
vector 54 Network.frw[2].wlan[0].radio receptionState:vector ETV
attr interpolationmode sample-hold
attr source receptionStateChanged
attr title "Radio reception state, vector"
vector 55 Network.frw[3].wlan[0].radio receptionState:vector ETV
attr interpolationmode sample-hold
attr source receptionStateChanged
attr title "Radio reception state, vector"
vector 56 Network.frw[4].wlan[0].radio receptionState:vector ETV
attr interpolationmode sample-hold
attr source receptionStateChanged
attr title "Radio reception state, vector"
vector 57 Network.frw[5].wlan[0].radio receptionState:vector ETV
attr interpolationmode sample-hold
attr source receptionStateChanged
attr title "Radio reception state, vector"
vector 58 Network.frw[6].wlan[0].radio receptionState:vector ETV
attr interpolationmode sample-hold
attr source receptionStateChanged
attr title "Radio reception state, vector"
vector 59 Network.frw[7].wlan[0].radio receptionState:vector ETV
attr interpolationmode sample-hold
attr source receptionStateChanged
attr title "Radio reception state, vector"
vector 60 Network.tx[0].wlan[0].mac.dcf.recoveryProcedure contentionWindowChanged:vector ETV
attr interpolationmode sample-hold
attr title "contention window, vector"
vector 61 Network.tx[1].wlan[0].mac.dcf.recoveryProcedure contentionWindowChanged:vector ETV
attr interpolationmode sample-hold
attr title "contention window, vector"
vector 62 Network.tx[2].wlan[0].mac.dcf.recoveryProcedure contentionWindowChanged:vector ETV
attr interpolationmode sample-hold
attr title "contention window, vector"
vector 63 Network.tx[3].wlan[0].mac.dcf.recoveryProcedure contentionWindowChanged:vector ETV
attr interpolationmode sample-hold
attr title "contention window, vector"
vector 64 Network.tx[4].wlan[0].mac.dcf.recoveryProcedure contentionWindowChanged:vector ETV
attr interpolationmode sample-hold
attr title "contention window, vector"
vector 65 Network.tx[5].wlan[0].mac.dcf.recoveryProcedure contentionWindowChanged:vector ETV
attr interpolationmode sample-hold
attr title "contention window, vector"
vector 66 Network.tx[6].wlan[0].mac.dcf.recoveryProcedure contentionWindowChanged:vector ETV
attr interpolationmode sample-hold
attr title "contention window, vector"
vector 67 Network.tx[7].wlan[0].mac.dcf.recoveryProcedure contentionWindowChanged:vector ETV
attr interpolationmode sample-hold
attr title "contention window, vector"
vector 68 Network.tx[8].wlan[0].mac.dcf.recoveryProcedure contentionWindowChanged:vector ETV
attr interpolationmode sample-hold
attr title "contention window, vector"
vector 69 Network.tx[9].wlan[0].mac.dcf.recoveryProcedure contentionWindowChanged:vector ETV
attr interpolationmode sample-hold
attr title "contention window, vector"
vector 70 Network.tx[10].wlan[0].mac.dcf.recoveryProcedure contentionWindowChanged:vector ETV
attr interpolationmode sample-hold
attr title "contention window, vector"
vector 71 Network.rx.wlan[0].mac.dcf.recoveryProcedure contentionWindowChanged:vector ETV
attr interpolationmode sample-hold
attr title "contention window, vector"
vector 72 Network.frw[0].wlan[0].mac.dcf.recoveryProcedure contentionWindowChanged:vector ETV
attr interpolationmode sample-hold
attr title "contention window, vector"
vector 73 Network.frw[1].wlan[0].mac.dcf.recoveryProcedure contentionWindowChanged:vector ETV
attr interpolationmode sample-hold
attr title "contention window, vector"
vector 74 Network.frw[2].wlan[0].mac.dcf.recoveryProcedure contentionWindowChanged:vector ETV
attr interpolationmode sample-hold
attr title "contention window, vector"
vector 75 Network.frw[3].wlan[0].mac.dcf.recoveryProcedure contentionWindowChanged:vector ETV
attr interpolationmode sample-hold
attr title "contention window, vector"
vector 76 Network.frw[4].wlan[0].mac.dcf.recoveryProcedure contentionWindowChanged:vector ETV
attr interpolationmode sample-hold
attr title "contention window, vector"
vector 77 Network.frw[5].wlan[0].mac.dcf.recoveryProcedure contentionWindowChanged:vector ETV
attr interpolationmode sample-hold
attr title "contention window, vector"
vector 78 Network.frw[6].wlan[0].mac.dcf.recoveryProcedure contentionWindowChanged:vector ETV
attr interpolationmode sample-hold
attr title "contention window, vector"
vector 79 Network.frw[7].wlan[0].mac.dcf.recoveryProcedure contentionWindowChanged:vector ETV
attr interpolationmode sample-hold
attr title "contention window, vector"
vector 80 Network.tx[3].app[0] packetSent:vector(packetBytes) ETV
attr interpolationmode none
attr source packetSent
attr title "packets sent, vector(packetBytes)"
vector 81 Network.tx[3].udp packetSent:vector(packetBytes) ETV
attr interpolationmode none
attr source packetSent
attr title "packets sent, vector(packetBytes)"
vector 82 Network.tx[3].wlan[0].mac packetReceivedFromUpper:vector(packetBytes) ETV
attr interpolationmode none
attr title "packets received from upper layer, vector(packetBytes)"
vector 83 Network.tx[3].wlan[0].mac.dcf.channelAccess.pendingQueue packetPushed:vector(packetBytes) ETV
attr interpolationmode none
attr title "packet pushed, vector(packetBytes)"
vector 84 Network.tx[3].wlan[0].mac.dcf.channelAccess.pendingQueue queueLength:vector ETV
attr interpolationmode sample-hold
attr source "count(packetPushed) - count(packetPopped) - count(packetRemoved) - count(packetDropped)"
attr title "queue length, vector"
vector 85 Network.tx[3].wlan[0].mac.dcf.channelAccess.contention backoffPeriodGenerated:vector ETV
attr interpolationmode none
attr title "backoff periods, vector"
vector 86 Network.tx[3].wlan[0].mac.dcf.channelAccess.contention backoffActive:vector ETV
attr interpolationmode sample-hold
attr source count(backoffStarted)-count(backoffStopped)
attr title "backoff active, vector"
vector 87 Network.tx[3].wlan[0].mac.dcf.channelAccess.pendingQueue packetPopped:vector(packetBytes) ETV
attr interpolationmode none
attr title "packet popped, vector(packetBytes)"
vector 88 Network.tx[3].wlan[0].mac.dcf.channelAccess.pendingQueue queueingTime:vector ETV
attr interpolationmode none
attr source queueingTime(packetPopped)
attr title "queueing times, vector"
attr unit s
vector 89 Network.tx[3].wlan[0].mac.dcf.channelAccess.inProgressFrames queueLength:vector ETV
attr interpolationmode sample-hold
attr source "count(packetEnqueued) - count(packetDequeued)"
attr title "queue length, vector"
vector 90 Network.tx[3].wlan[0].mac.dcf datarateSelected:vector ETV
attr interpolationmode none
attr title "datarates selected, vector"
vector 91 Network.tx[3].wlan[0].mac packetSentToLower:vector(packetBytes) ETV
attr interpolationmode none
attr title "packets sent to lower layer, vector(packetBytes)"
vector 92 Network.tx[3].wlan[0].mac.dcf frameSequenceActive:vector ETV
attr interpolationmode sample-hold
attr source count(frameSequenceStarted)-count(frameSequenceFinished)
attr title "frame sequence active, vector"
vector 93 Network.tx[3].wlan[0].radio transmissionState:vector ETV
attr interpolationmode sample-hold
attr source transmissionStateChanged
attr title "Radio transmission state, vector"
vector 94 Network.tx[3].wlan[0].mac.dcf packetSentToPeer:vector(packetBytes) ETV
attr interpolationmode none
attr title "packets sent, vector(packetBytes)"
vector 95 Network.tx[3].wlan[0].mac.dcf packetSentToPeerUnicast:vector(packetBytes) ETV
attr interpolationmode none
attr source ieee80211Unicast(packetSentToPeer)
attr title "packets sent: unicast, vector(packetBytes)"
vector 96 Network.tx[3].wlan[0].mac.dcf packetSentToPeerWithoutRetry:vector(packetBytes) ETV
attr interpolationmode none
attr source ieee80211NotRetry(packetSentToPeer)
attr title "packets sent: without retry, vector(packetBytes)"
vector 97 Network.tx[3].wlan[0].mac.rx nav:vector ETV
attr interpolationmode linear
attr source navChanged
attr title "network allocation vector, vector"
vector 98 Network.tx[3].wlan[0].mac.dcf packetSentToPeerWithRetry:vector(packetBytes) ETV
attr interpolationmode none
attr source ieee80211Retry(packetSentToPeer)
attr title "packets sent: with retry, vector(packetBytes)"
vector 99 Network.tx[2].app[0] packetSent:vector(packetBytes) ETV
attr interpolationmode none
attr source packetSent
attr title "packets sent, vector(packetBytes)"
vector 100 Network.tx[2].udp packetSent:vector(packetBytes) ETV
attr interpolationmode none
attr source packetSent
attr title "packets sent, vector(packetBytes)"
vector 101 Network.tx[2].wlan[0].mac packetReceivedFromUpper:vector(packetBytes) ETV
attr interpolationmode none
attr title "packets received from upper layer, vector(packetBytes)"
vector 102 Network.tx[2].wlan[0].mac.dcf.channelAccess.pendingQueue packetPushed:vector(packetBytes) ETV
attr interpolationmode none
attr title "packet pushed, vector(packetBytes)"
vector 103 Network.tx[2].wlan[0].mac.dcf.channelAccess.pendingQueue queueLength:vector ETV
attr interpolationmode sample-hold
attr source "count(packetPushed) - count(packetPopped) - count(packetRemoved) - count(packetDropped)"
attr title "queue length, vector"
vector 104 Network.tx[2].wlan[0].mac.dcf.channelAccess.contention backoffPeriodGenerated:vector ETV
attr interpolationmode none
attr title "backoff periods, vector"
vector 105 Network.tx[2].wlan[0].mac.dcf.channelAccess.contention backoffActive:vector ETV
attr interpolationmode sample-hold
attr source count(backoffStarted)-count(backoffStopped)
attr title "backoff active, vector"
vector 106 Network.tx[2].wlan[0].mac.dcf.channelAccess.pendingQueue packetPopped:vector(packetBytes) ETV
attr interpolationmode none
attr title "packet popped, vector(packetBytes)"
vector 107 Network.tx[2].wlan[0].mac.dcf.channelAccess.pendingQueue queueingTime:vector ETV
attr interpolationmode none
attr source queueingTime(packetPopped)
attr title "queueing times, vector"
attr unit s
vector 108 Network.tx[2].wlan[0].mac.dcf.channelAccess.inProgressFrames queueLength:vector ETV
attr interpolationmode sample-hold
attr source "count(packetEnqueued) - count(packetDequeued)"
attr title "queue length, vector"
vector 109 Network.tx[2].wlan[0].mac.dcf datarateSelected:vector ETV
attr interpolationmode none
attr title "datarates selected, vector"
vector 110 Network.tx[2].wlan[0].mac packetSentToLower:vector(packetBytes) ETV
attr interpolationmode none
attr title "packets sent to lower layer, vector(packetBytes)"
vector 111 Network.tx[2].wlan[0].mac.dcf frameSequenceActive:vector ETV
attr interpolationmode sample-hold
attr source count(frameSequenceStarted)-count(frameSequenceFinished)
attr title "frame sequence active, vector"
vector 112 Network.tx[2].wlan[0].radio transmissionState:vector ETV
attr interpolationmode sample-hold
attr source transmissionStateChanged
attr title "Radio transmission state, vector"
vector 113 Network.tx[2].wlan[0].mac.dcf packetSentToPeer:vector(packetBytes) ETV
attr interpolationmode none
attr title "packets sent, vector(packetBytes)"
vector 114 Network.tx[2].wlan[0].mac.dcf packetSentToPeerUnicast:vector(packetBytes) ETV
attr interpolationmode none
attr source ieee80211Unicast(packetSentToPeer)
attr title "packets sent: unicast, vector(packetBytes)"
vector 115 Network.tx[2].wlan[0].mac.dcf packetSentToPeerWithoutRetry:vector(packetBytes) ETV
attr interpolationmode none
attr source ieee80211NotRetry(packetSentToPeer)
attr title "packets sent: without retry, vector(packetBytes)"
vector 116 Network.tx[2].wlan[0].mac.rx nav:vector ETV
attr interpolationmode linear
attr source navChanged
attr title "network allocation vector, vector"
vector 117 Network.tx[2].wlan[0].mac.dcf packetSentToPeerWithRetry:vector(packetBytes) ETV
attr interpolationmode none
attr source ieee80211Retry(packetSentToPeer)
attr title "packets sent: with retry, vector(packetBytes)"
vector 118 Network.tx[4].app[0] packetSent:vector(packetBytes) ETV
attr interpolationmode none
attr source packetSent
attr title "packets sent, vector(packetBytes)"
vector 119 Network.tx[4].udp packetSent:vector(packetBytes) ETV
attr interpolationmode none
attr source packetSent
attr title "packets sent, vector(packetBytes)"
vector 120 Network.tx[4].wlan[0].mac packetReceivedFromUpper:vector(packetBytes) ETV
attr interpolationmode none
attr title "packets received from upper layer, vector(packetBytes)"
vector 121 Network.tx[4].wlan[0].mac.dcf.channelAccess.pendingQueue packetPushed:vector(packetBytes) ETV
attr interpolationmode none
attr title "packet pushed, vector(packetBytes)"
vector 122 Network.tx[4].wlan[0].mac.dcf.channelAccess.pendingQueue queueLength:vector ETV
attr interpolationmode sample-hold
attr source "count(packetPushed) - count(packetPopped) - count(packetRemoved) - count(packetDropped)"
attr title "queue length, vector"
vector 123 Network.tx[4].wlan[0].mac.dcf.channelAccess.contention backoffPeriodGenerated:vector ETV
attr interpolationmode none
attr title "backoff periods, vector"
vector 124 Network.tx[4].wlan[0].mac.dcf.channelAccess.contention backoffActive:vector ETV
attr interpolationmode sample-hold
attr source count(backoffStarted)-count(backoffStopped)
attr title "backoff active, vector"
vector 125 Network.tx[4].wlan[0].mac.dcf.channelAccess.pendingQueue packetPopped:vector(packetBytes) ETV
attr interpolationmode none
attr title "packet popped, vector(packetBytes)"
vector 126 Network.tx[4].wlan[0].mac.dcf.channelAccess.pendingQueue queueingTime:vector ETV
attr interpolationmode none
attr source queueingTime(packetPopped)
attr title "queueing times, vector"
attr unit s
vector 127 Network.tx[4].wlan[0].mac.dcf.channelAccess.inProgressFrames queueLength:vector ETV
attr interpolationmode sample-hold
attr source "count(packetEnqueued) - count(packetDequeued)"
attr title "queue length, vector"
vector 128 Network.tx[4].wlan[0].mac.dcf datarateSelected:vector ETV
attr interpolationmode none
attr title "datarates selected, vector"
vector 129 Network.tx[4].wlan[0].mac packetSentToLower:vector(packetBytes) ETV
attr interpolationmode none
attr title "packets sent to lower layer, vector(packetBytes)"
vector 130 Network.tx[4].wlan[0].mac.dcf frameSequenceActive:vector ETV
attr interpolationmode sample-hold
attr source count(frameSequenceStarted)-count(frameSequenceFinished)
attr title "frame sequence active, vector"
vector 131 Network.tx[4].wlan[0].radio transmissionState:vector ETV
attr interpolationmode sample-hold
attr source transmissionStateChanged
attr title "Radio transmission state, vector"
vector 132 Network.tx[5].app[0] packetSent:vector(packetBytes) ETV
attr interpolationmode none
attr source packetSent
attr title "packets sent, vector(packetBytes)"
vector 133 Network.tx[5].udp packetSent:vector(packetBytes) ETV
attr interpolationmode none
attr source packetSent
attr title "packets sent, vector(packetBytes)"
vector 134 Network.tx[5].wlan[0].mac packetReceivedFromUpper:vector(packetBytes) ETV
attr interpolationmode none
attr title "packets received from upper layer, vector(packetBytes)"
vector 135 Network.tx[5].wlan[0].mac.dcf.channelAccess.pendingQueue packetPushed:vector(packetBytes) ETV
attr interpolationmode none
attr title "packet pushed, vector(packetBytes)"
vector 136 Network.tx[5].wlan[0].mac.dcf.channelAccess.pendingQueue queueLength:vector ETV
attr interpolationmode sample-hold
attr source "count(packetPushed) - count(packetPopped) - count(packetRemoved) - count(packetDropped)"
attr title "queue length, vector"
vector 137 Network.tx[5].wlan[0].mac.dcf.channelAccess.contention backoffPeriodGenerated:vector ETV
attr interpolationmode none
attr title "backoff periods, vector"
vector 138 Network.tx[5].wlan[0].mac.dcf.channelAccess.contention backoffActive:vector ETV
attr interpolationmode sample-hold
attr source count(backoffStarted)-count(backoffStopped)
attr title "backoff active, vector"
vector 139 Network.tx[5].wlan[0].mac.dcf.channelAccess.pendingQueue packetPopped:vector(packetBytes) ETV
attr interpolationmode none
attr title "packet popped, vector(packetBytes)"
vector 140 Network.tx[5].wlan[0].mac.dcf.channelAccess.pendingQueue queueingTime:vector ETV
attr interpolationmode none
attr source queueingTime(packetPopped)
attr title "queueing times, vector"
attr unit s
vector 141 Network.tx[5].wlan[0].mac.dcf.channelAccess.inProgressFrames queueLength:vector ETV
attr interpolationmode sample-hold
attr source "count(packetEnqueued) - count(packetDequeued)"
attr title "queue length, vector"
vector 142 Network.tx[5].wlan[0].mac.dcf datarateSelected:vector ETV
attr interpolationmode none
attr title "datarates selected, vector"
vector 143 Network.tx[5].wlan[0].mac packetSentToLower:vector(packetBytes) ETV
attr interpolationmode none
attr title "packets sent to lower layer, vector(packetBytes)"
vector 144 Network.tx[5].wlan[0].mac.dcf frameSequenceActive:vector ETV
attr interpolationmode sample-hold
attr source count(frameSequenceStarted)-count(frameSequenceFinished)
attr title "frame sequence active, vector"
vector 145 Network.tx[5].wlan[0].radio transmissionState:vector ETV
attr interpolationmode sample-hold
attr source transmissionStateChanged
attr title "Radio transmission state, vector"
vector 146 Network.tx[4].wlan[0].mac.dcf packetSentToPeer:vector(packetBytes) ETV
attr interpolationmode none
attr title "packets sent, vector(packetBytes)"
vector 147 Network.tx[4].wlan[0].mac.dcf packetSentToPeerUnicast:vector(packetBytes) ETV
attr interpolationmode none
attr source ieee80211Unicast(packetSentToPeer)
attr title "packets sent: unicast, vector(packetBytes)"
vector 148 Network.tx[4].wlan[0].mac.dcf packetSentToPeerWithoutRetry:vector(packetBytes) ETV
attr interpolationmode none
attr source ieee80211NotRetry(packetSentToPeer)
attr title "packets sent: without retry, vector(packetBytes)"
vector 149 Network.tx[4].wlan[0].mac.rx nav:vector ETV
attr interpolationmode linear
attr source navChanged
attr title "network allocation vector, vector"
vector 150 Network.tx[5].wlan[0].mac.dcf packetSentToPeer:vector(packetBytes) ETV
attr interpolationmode none
attr title "packets sent, vector(packetBytes)"
vector 151 Network.tx[5].wlan[0].mac.dcf packetSentToPeerUnicast:vector(packetBytes) ETV
attr interpolationmode none
attr source ieee80211Unicast(packetSentToPeer)
attr title "packets sent: unicast, vector(packetBytes)"
vector 152 Network.tx[5].wlan[0].mac.dcf packetSentToPeerWithoutRetry:vector(packetBytes) ETV
attr interpolationmode none
attr source ieee80211NotRetry(packetSentToPeer)
attr title "packets sent: without retry, vector(packetBytes)"
vector 153 Network.tx[5].wlan[0].mac.rx nav:vector ETV
attr interpolationmode linear
attr source navChanged
attr title "network allocation vector, vector"
vector 154 Network.tx[5].wlan[0].mac.dcf packetSentToPeerWithRetry:vector(packetBytes) ETV
attr interpolationmode none
attr source ieee80211Retry(packetSentToPeer)
attr title "packets sent: with retry, vector(packetBytes)"
vector 155 Network.tx[4].wlan[0].mac.dcf packetSentToPeerWithRetry:vector(packetBytes) ETV
attr interpolationmode none
attr source ieee80211Retry(packetSentToPeer)
attr title "packets sent: with retry, vector(packetBytes)"
vector 156 Network.tx[7].app[0] packetSent:vector(packetBytes) ETV
attr interpolationmode none
attr source packetSent
attr title "packets sent, vector(packetBytes)"
vector 157 Network.tx[7].udp packetSent:vector(packetBytes) ETV
attr interpolationmode none
attr source packetSent
attr title "packets sent, vector(packetBytes)"
vector 158 Network.tx[7].wlan[0].mac packetReceivedFromUpper:vector(packetBytes) ETV
attr interpolationmode none
attr title "packets received from upper layer, vector(packetBytes)"
vector 159 Network.tx[7].wlan[0].mac.dcf.channelAccess.pendingQueue packetPushed:vector(packetBytes) ETV
attr interpolationmode none
attr title "packet pushed, vector(packetBytes)"
vector 160 Network.tx[7].wlan[0].mac.dcf.channelAccess.pendingQueue queueLength:vector ETV
attr interpolationmode sample-hold
attr source "count(packetPushed) - count(packetPopped) - count(packetRemoved) - count(packetDropped)"
attr title "queue length, vector"
vector 161 Network.tx[7].wlan[0].mac.dcf.channelAccess.contention backoffPeriodGenerated:vector ETV
attr interpolationmode none
attr title "backoff periods, vector"
vector 162 Network.tx[7].wlan[0].mac.dcf.channelAccess.contention backoffActive:vector ETV
attr interpolationmode sample-hold
attr source count(backoffStarted)-count(backoffStopped)
attr title "backoff active, vector"
vector 163 Network.tx[7].wlan[0].mac.dcf.channelAccess.pendingQueue packetPopped:vector(packetBytes) ETV
attr interpolationmode none
attr title "packet popped, vector(packetBytes)"
vector 164 Network.tx[7].wlan[0].mac.dcf.channelAccess.pendingQueue queueingTime:vector ETV
attr interpolationmode none
attr source queueingTime(packetPopped)
attr title "queueing times, vector"
attr unit s
vector 165 Network.tx[7].wlan[0].mac.dcf.channelAccess.inProgressFrames queueLength:vector ETV
attr interpolationmode sample-hold
attr source "count(packetEnqueued) - count(packetDequeued)"
attr title "queue length, vector"
vector 166 Network.tx[7].wlan[0].mac.dcf datarateSelected:vector ETV
attr interpolationmode none
attr title "datarates selected, vector"
vector 167 Network.tx[7].wlan[0].mac packetSentToLower:vector(packetBytes) ETV
attr interpolationmode none
attr title "packets sent to lower layer, vector(packetBytes)"
vector 168 Network.tx[7].wlan[0].mac.dcf frameSequenceActive:vector ETV
attr interpolationmode sample-hold
attr source count(frameSequenceStarted)-count(frameSequenceFinished)
attr title "frame sequence active, vector"
vector 169 Network.tx[7].wlan[0].radio transmissionState:vector ETV
attr interpolationmode sample-hold
attr source transmissionStateChanged
attr title "Radio transmission state, vector"
vector 170 Network.tx[7].wlan[0].mac.dcf packetSentToPeer:vector(packetBytes) ETV
attr interpolationmode none
attr title "packets sent, vector(packetBytes)"
vector 171 Network.tx[7].wlan[0].mac.dcf packetSentToPeerUnicast:vector(packetBytes) ETV
attr interpolationmode none
attr source ieee80211Unicast(packetSentToPeer)
attr title "packets sent: unicast, vector(packetBytes)"
vector 172 Network.tx[7].wlan[0].mac.dcf packetSentToPeerWithoutRetry:vector(packetBytes) ETV
attr interpolationmode none
attr source ieee80211NotRetry(packetSentToPeer)
attr title "packets sent: without retry, vector(packetBytes)"
vector 173 Network.tx[7].wlan[0].mac.rx nav:vector ETV
attr interpolationmode linear
attr source navChanged
attr title "network allocation vector, vector"
vector 174 Network.tx[7].wlan[0].mac.dcf packetSentToPeerWithRetry:vector(packetBytes) ETV
attr interpolationmode none
attr source ieee80211Retry(packetSentToPeer)
attr title "packets sent: with retry, vector(packetBytes)"
vector 175 Network.tx[10].app[0] packetSent:vector(packetBytes) ETV
attr interpolationmode none
attr source packetSent
attr title "packets sent, vector(packetBytes)"
vector 176 Network.tx[10].udp packetSent:vector(packetBytes) ETV
attr interpolationmode none
attr source packetSent
attr title "packets sent, vector(packetBytes)"
vector 177 Network.tx[10].wlan[0].mac packetReceivedFromUpper:vector(packetBytes) ETV
attr interpolationmode none
attr title "packets received from upper layer, vector(packetBytes)"
vector 178 Network.tx[10].wlan[0].mac.dcf.channelAccess.pendingQueue packetPushed:vector(packetBytes) ETV
attr interpolationmode none
attr title "packet pushed, vector(packetBytes)"
vector 179 Network.tx[10].wlan[0].mac.dcf.channelAccess.pendingQueue queueLength:vector ETV
attr interpolationmode sample-hold
attr source "count(packetPushed) - count(packetPopped) - count(packetRemoved) - count(packetDropped)"
attr title "queue length, vector"
vector 180 Network.tx[10].wlan[0].mac.dcf.channelAccess.contention backoffPeriodGenerated:vector ETV
attr interpolationmode none
attr title "backoff periods, vector"
vector 181 Network.tx[10].wlan[0].mac.dcf.channelAccess.contention backoffActive:vector ETV
attr interpolationmode sample-hold
attr source count(backoffStarted)-count(backoffStopped)
attr title "backoff active, vector"
vector 182 Network.tx[10].wlan[0].mac.dcf.channelAccess.pendingQueue packetPopped:vector(packetBytes) ETV
attr interpolationmode none
attr title "packet popped, vector(packetBytes)"
vector 183 Network.tx[10].wlan[0].mac.dcf.channelAccess.pendingQueue queueingTime:vector ETV
attr interpolationmode none
attr source queueingTime(packetPopped)
attr title "queueing times, vector"
attr unit s
vector 184 Network.tx[10].wlan[0].mac.dcf.channelAccess.inProgressFrames queueLength:vector ETV
attr interpolationmode sample-hold
attr source "count(packetEnqueued) - count(packetDequeued)"
attr title "queue length, vector"
vector 185 Network.tx[10].wlan[0].mac.dcf datarateSelected:vector ETV
attr interpolationmode none
attr title "datarates selected, vector"
vector 186 Network.tx[10].wlan[0].mac packetSentToLower:vector(packetBytes) ETV
attr interpolationmode none
attr title "packets sent to lower layer, vector(packetBytes)"
vector 187 Network.tx[10].wlan[0].mac.dcf frameSequenceActive:vector ETV
attr interpolationmode sample-hold
attr source count(frameSequenceStarted)-count(frameSequenceFinished)
attr title "frame sequence active, vector"
vector 188 Network.tx[10].wlan[0].radio transmissionState:vector ETV
attr interpolationmode sample-hold
attr source transmissionStateChanged
attr title "Radio transmission state, vector"
vector 189 Network.tx[10].wlan[0].mac.dcf packetSentToPeer:vector(packetBytes) ETV
attr interpolationmode none
attr title "packets sent, vector(packetBytes)"
vector 190 Network.tx[10].wlan[0].mac.dcf packetSentToPeerUnicast:vector(packetBytes) ETV
attr interpolationmode none
attr source ieee80211Unicast(packetSentToPeer)
attr title "packets sent: unicast, vector(packetBytes)"
vector 191 Network.tx[10].wlan[0].mac.dcf packetSentToPeerWithoutRetry:vector(packetBytes) ETV
attr interpolationmode none
attr source ieee80211NotRetry(packetSentToPeer)
attr title "packets sent: without retry, vector(packetBytes)"
vector 192 Network.tx[10].wlan[0].mac.rx nav:vector ETV
attr interpolationmode linear
attr source navChanged
attr title "network allocation vector, vector"
vector 193 Network.tx[6].app[0] packetSent:vector(packetBytes) ETV
attr interpolationmode none
attr source packetSent
attr title "packets sent, vector(packetBytes)"
vector 194 Network.tx[6].udp packetSent:vector(packetBytes) ETV
attr interpolationmode none
attr source packetSent
attr title "packets sent, vector(packetBytes)"
vector 195 Network.tx[6].wlan[0].mac packetReceivedFromUpper:vector(packetBytes) ETV
attr interpolationmode none
attr title "packets received from upper layer, vector(packetBytes)"
vector 196 Network.tx[6].wlan[0].mac.dcf.channelAccess.pendingQueue packetPushed:vector(packetBytes) ETV
attr interpolationmode none
attr title "packet pushed, vector(packetBytes)"
vector 197 Network.tx[6].wlan[0].mac.dcf.channelAccess.pendingQueue queueLength:vector ETV
attr interpolationmode sample-hold
attr source "count(packetPushed) - count(packetPopped) - count(packetRemoved) - count(packetDropped)"
attr title "queue length, vector"
vector 198 Network.tx[6].wlan[0].mac.dcf.channelAccess.contention backoffPeriodGenerated:vector ETV
attr interpolationmode none
attr title "backoff periods, vector"
vector 199 Network.tx[6].wlan[0].mac.dcf.channelAccess.contention backoffActive:vector ETV
attr interpolationmode sample-hold
attr source count(backoffStarted)-count(backoffStopped)
attr title "backoff active, vector"
vector 200 Network.tx[6].wlan[0].mac.dcf.channelAccess.pendingQueue packetPopped:vector(packetBytes) ETV
attr interpolationmode none
attr title "packet popped, vector(packetBytes)"
vector 201 Network.tx[6].wlan[0].mac.dcf.channelAccess.pendingQueue queueingTime:vector ETV
attr interpolationmode none
attr source queueingTime(packetPopped)
attr title "queueing times, vector"
attr unit s
vector 202 Network.tx[6].wlan[0].mac.dcf.channelAccess.inProgressFrames queueLength:vector ETV
attr interpolationmode sample-hold
attr source "count(packetEnqueued) - count(packetDequeued)"
attr title "queue length, vector"
vector 203 Network.tx[6].wlan[0].mac.dcf datarateSelected:vector ETV
attr interpolationmode none
attr title "datarates selected, vector"
vector 204 Network.tx[6].wlan[0].mac packetSentToLower:vector(packetBytes) ETV
attr interpolationmode none
attr title "packets sent to lower layer, vector(packetBytes)"
vector 205 Network.tx[6].wlan[0].mac.dcf frameSequenceActive:vector ETV
attr interpolationmode sample-hold
attr source count(frameSequenceStarted)-count(frameSequenceFinished)
attr title "frame sequence active, vector"
vector 206 Network.tx[6].wlan[0].radio transmissionState:vector ETV
attr interpolationmode sample-hold
attr source transmissionStateChanged
attr title "Radio transmission state, vector"
vector 207 Network.tx[0].app[0] packetSent:vector(packetBytes) ETV
attr interpolationmode none
attr source packetSent
attr title "packets sent, vector(packetBytes)"
vector 208 Network.tx[0].udp packetSent:vector(packetBytes) ETV
attr interpolationmode none
attr source packetSent
attr title "packets sent, vector(packetBytes)"
vector 209 Network.tx[0].wlan[0].mac packetReceivedFromUpper:vector(packetBytes) ETV
attr interpolationmode none
attr title "packets received from upper layer, vector(packetBytes)"
vector 210 Network.tx[0].wlan[0].mac.dcf.channelAccess.pendingQueue packetPushed:vector(packetBytes) ETV
attr interpolationmode none
attr title "packet pushed, vector(packetBytes)"
vector 211 Network.tx[0].wlan[0].mac.dcf.channelAccess.pendingQueue queueLength:vector ETV
attr interpolationmode sample-hold
attr source "count(packetPushed) - count(packetPopped) - count(packetRemoved) - count(packetDropped)"
attr title "queue length, vector"
vector 212 Network.tx[0].wlan[0].mac.dcf.channelAccess.contention backoffPeriodGenerated:vector ETV
attr interpolationmode none
attr title "backoff periods, vector"
vector 213 Network.tx[0].wlan[0].mac.dcf.channelAccess.contention backoffActive:vector ETV
attr interpolationmode sample-hold
attr source count(backoffStarted)-count(backoffStopped)
attr title "backoff active, vector"
vector 214 Network.tx[0].wlan[0].mac.dcf.channelAccess.pendingQueue packetPopped:vector(packetBytes) ETV
attr interpolationmode none
attr title "packet popped, vector(packetBytes)"
vector 215 Network.tx[0].wlan[0].mac.dcf.channelAccess.pendingQueue queueingTime:vector ETV
attr interpolationmode none
attr source queueingTime(packetPopped)
attr title "queueing times, vector"
attr unit s
vector 216 Network.tx[0].wlan[0].mac.dcf.channelAccess.inProgressFrames queueLength:vector ETV
attr interpolationmode sample-hold
attr source "count(packetEnqueued) - count(packetDequeued)"
attr title "queue length, vector"
vector 217 Network.tx[0].wlan[0].mac.dcf datarateSelected:vector ETV
attr interpolationmode none
attr title "datarates selected, vector"
vector 218 Network.tx[0].wlan[0].mac packetSentToLower:vector(packetBytes) ETV
attr interpolationmode none
attr title "packets sent to lower layer, vector(packetBytes)"
vector 219 Network.tx[0].wlan[0].mac.dcf frameSequenceActive:vector ETV
attr interpolationmode sample-hold
attr source count(frameSequenceStarted)-count(frameSequenceFinished)
attr title "frame sequence active, vector"
vector 220 Network.tx[0].wlan[0].radio transmissionState:vector ETV
attr interpolationmode sample-hold
attr source transmissionStateChanged
attr title "Radio transmission state, vector"
vector 221 Network.tx[6].wlan[0].mac.dcf packetSentToPeer:vector(packetBytes) ETV
attr interpolationmode none
attr title "packets sent, vector(packetBytes)"
vector 222 Network.tx[6].wlan[0].mac.dcf packetSentToPeerUnicast:vector(packetBytes) ETV
attr interpolationmode none
attr source ieee80211Unicast(packetSentToPeer)
attr title "packets sent: unicast, vector(packetBytes)"
vector 223 Network.tx[6].wlan[0].mac.dcf packetSentToPeerWithoutRetry:vector(packetBytes) ETV
attr interpolationmode none
attr source ieee80211NotRetry(packetSentToPeer)
attr title "packets sent: without retry, vector(packetBytes)"
vector 224 Network.tx[6].wlan[0].mac.rx nav:vector ETV
attr interpolationmode linear
attr source navChanged
attr title "network allocation vector, vector"
vector 225 Network.tx[1].app[0] packetSent:vector(packetBytes) ETV
attr interpolationmode none
attr source packetSent
attr title "packets sent, vector(packetBytes)"
vector 226 Network.tx[1].udp packetSent:vector(packetBytes) ETV
attr interpolationmode none
attr source packetSent
attr title "packets sent, vector(packetBytes)"
vector 227 Network.tx[1].wlan[0].mac packetReceivedFromUpper:vector(packetBytes) ETV
attr interpolationmode none
attr title "packets received from upper layer, vector(packetBytes)"
vector 228 Network.tx[1].wlan[0].mac.dcf.channelAccess.pendingQueue packetPushed:vector(packetBytes) ETV
attr interpolationmode none
attr title "packet pushed, vector(packetBytes)"
vector 229 Network.tx[1].wlan[0].mac.dcf.channelAccess.pendingQueue queueLength:vector ETV
attr interpolationmode sample-hold
attr source "count(packetPushed) - count(packetPopped) - count(packetRemoved) - count(packetDropped)"
attr title "queue length, vector"
vector 230 Network.tx[1].wlan[0].mac.dcf.channelAccess.contention backoffPeriodGenerated:vector ETV
attr interpolationmode none
attr title "backoff periods, vector"
vector 231 Network.tx[1].wlan[0].mac.dcf.channelAccess.contention backoffActive:vector ETV
attr interpolationmode sample-hold
attr source count(backoffStarted)-count(backoffStopped)
attr title "backoff active, vector"
vector 232 Network.tx[1].wlan[0].mac.dcf.channelAccess.pendingQueue packetPopped:vector(packetBytes) ETV
attr interpolationmode none
attr title "packet popped, vector(packetBytes)"
vector 233 Network.tx[1].wlan[0].mac.dcf.channelAccess.pendingQueue queueingTime:vector ETV
attr interpolationmode none
attr source queueingTime(packetPopped)
attr title "queueing times, vector"
attr unit s
vector 234 Network.tx[1].wlan[0].mac.dcf.channelAccess.inProgressFrames queueLength:vector ETV
attr interpolationmode sample-hold
attr source "count(packetEnqueued) - count(packetDequeued)"
attr title "queue length, vector"
vector 235 Network.tx[1].wlan[0].mac.dcf datarateSelected:vector ETV
attr interpolationmode none
attr title "datarates selected, vector"
vector 236 Network.tx[1].wlan[0].mac packetSentToLower:vector(packetBytes) ETV
attr interpolationmode none
attr title "packets sent to lower layer, vector(packetBytes)"
vector 237 Network.tx[1].wlan[0].mac.dcf frameSequenceActive:vector ETV
attr interpolationmode sample-hold
attr source count(frameSequenceStarted)-count(frameSequenceFinished)
attr title "frame sequence active, vector"
vector 238 Network.tx[1].wlan[0].radio transmissionState:vector ETV
attr interpolationmode sample-hold
attr source transmissionStateChanged
attr title "Radio transmission state, vector"
vector 239 Network.tx[0].wlan[0].mac.dcf packetSentToPeer:vector(packetBytes) ETV
attr interpolationmode none
attr title "packets sent, vector(packetBytes)"
vector 240 Network.tx[0].wlan[0].mac.dcf packetSentToPeerUnicast:vector(packetBytes) ETV
attr interpolationmode none
attr source ieee80211Unicast(packetSentToPeer)
attr title "packets sent: unicast, vector(packetBytes)"
vector 241 Network.tx[0].wlan[0].mac.dcf packetSentToPeerWithoutRetry:vector(packetBytes) ETV
attr interpolationmode none
attr source ieee80211NotRetry(packetSentToPeer)
attr title "packets sent: without retry, vector(packetBytes)"
vector 242 Network.tx[0].wlan[0].mac.rx nav:vector ETV
attr interpolationmode linear
attr source navChanged
attr title "network allocation vector, vector"
vector 243 Network.tx[1].wlan[0].mac.dcf packetSentToPeer:vector(packetBytes) ETV
attr interpolationmode none
attr title "packets sent, vector(packetBytes)"
vector 244 Network.tx[1].wlan[0].mac.dcf packetSentToPeerUnicast:vector(packetBytes) ETV
attr interpolationmode none
attr source ieee80211Unicast(packetSentToPeer)
attr title "packets sent: unicast, vector(packetBytes)"
vector 245 Network.tx[1].wlan[0].mac.dcf packetSentToPeerWithoutRetry:vector(packetBytes) ETV
attr interpolationmode none
attr source ieee80211NotRetry(packetSentToPeer)
attr title "packets sent: without retry, vector(packetBytes)"
vector 246 Network.tx[1].wlan[0].mac.rx nav:vector ETV
attr interpolationmode linear
attr source navChanged
attr title "network allocation vector, vector"
vector 247 Network.tx[9].app[0] packetSent:vector(packetBytes) ETV
attr interpolationmode none
attr source packetSent
attr title "packets sent, vector(packetBytes)"
vector 248 Network.tx[9].udp packetSent:vector(packetBytes) ETV
attr interpolationmode none
attr source packetSent
attr title "packets sent, vector(packetBytes)"
vector 249 Network.tx[9].wlan[0].mac packetReceivedFromUpper:vector(packetBytes) ETV
attr interpolationmode none
attr title "packets received from upper layer, vector(packetBytes)"
vector 250 Network.tx[9].wlan[0].mac.dcf.channelAccess.pendingQueue packetPushed:vector(packetBytes) ETV
attr interpolationmode none
attr title "packet pushed, vector(packetBytes)"
vector 251 Network.tx[9].wlan[0].mac.dcf.channelAccess.pendingQueue queueLength:vector ETV
attr interpolationmode sample-hold
attr source "count(packetPushed) - count(packetPopped) - count(packetRemoved) - count(packetDropped)"
attr title "queue length, vector"
vector 252 Network.tx[9].wlan[0].mac.dcf.channelAccess.contention backoffPeriodGenerated:vector ETV
attr interpolationmode none
attr title "backoff periods, vector"
vector 253 Network.tx[9].wlan[0].mac.dcf.channelAccess.contention backoffActive:vector ETV
attr interpolationmode sample-hold
attr source count(backoffStarted)-count(backoffStopped)
attr title "backoff active, vector"
vector 254 Network.tx[9].wlan[0].mac.dcf.channelAccess.pendingQueue packetPopped:vector(packetBytes) ETV
attr interpolationmode none
attr title "packet popped, vector(packetBytes)"
vector 255 Network.tx[9].wlan[0].mac.dcf.channelAccess.pendingQueue queueingTime:vector ETV
attr interpolationmode none
attr source queueingTime(packetPopped)
attr title "queueing times, vector"
attr unit s
vector 256 Network.tx[9].wlan[0].mac.dcf.channelAccess.inProgressFrames queueLength:vector ETV
attr interpolationmode sample-hold
attr source "count(packetEnqueued) - count(packetDequeued)"
attr title "queue length, vector"
vector 257 Network.tx[9].wlan[0].mac.dcf datarateSelected:vector ETV
attr interpolationmode none
attr title "datarates selected, vector"
vector 258 Network.tx[9].wlan[0].mac packetSentToLower:vector(packetBytes) ETV
attr interpolationmode none
attr title "packets sent to lower layer, vector(packetBytes)"
vector 259 Network.tx[9].wlan[0].mac.dcf frameSequenceActive:vector ETV
attr interpolationmode sample-hold
attr source count(frameSequenceStarted)-count(frameSequenceFinished)
attr title "frame sequence active, vector"
vector 260 Network.tx[9].wlan[0].radio transmissionState:vector ETV
attr interpolationmode sample-hold
attr source transmissionStateChanged
attr title "Radio transmission state, vector"
vector 261 Network.tx[6].wlan[0].mac.dcf packetSentToPeerWithRetry:vector(packetBytes) ETV
attr interpolationmode none
attr source ieee80211Retry(packetSentToPeer)
attr title "packets sent: with retry, vector(packetBytes)"
vector 262 Network.tx[9].wlan[0].mac.dcf packetSentToPeer:vector(packetBytes) ETV
attr interpolationmode none
attr title "packets sent, vector(packetBytes)"
vector 263 Network.tx[9].wlan[0].mac.dcf packetSentToPeerUnicast:vector(packetBytes) ETV
attr interpolationmode none
attr source ieee80211Unicast(packetSentToPeer)
attr title "packets sent: unicast, vector(packetBytes)"
vector 264 Network.tx[9].wlan[0].mac.dcf packetSentToPeerWithoutRetry:vector(packetBytes) ETV
attr interpolationmode none
attr source ieee80211NotRetry(packetSentToPeer)
attr title "packets sent: without retry, vector(packetBytes)"
vector 265 Network.tx[9].wlan[0].mac.rx nav:vector ETV
attr interpolationmode linear
attr source navChanged
attr title "network allocation vector, vector"
vector 266 Network.tx[8].wlan[0].mac packetReceivedFromLower:vector(packetBytes) ETV
attr interpolationmode none
attr title "packets received from lower layer, vector(packetBytes)"
vector 267 Network.tx[8].wlan[0].mac.rx nav:vector ETV
attr interpolationmode linear
attr source navChanged
attr title "network allocation vector, vector"
vector 268 Network.tx[8].wlan[0].mac.dcf packetDrop:vector(packetBytes) ETV
attr interpolationmode none
attr source packetDropped
attr title "packet drops, vector(packetBytes)"
vector 269 Network.tx[8].wlan[0].mac.dcf packetDropNotAddressedToUs:vector(packetBytes) ETV
attr interpolationmode none
attr source packetDropReasonIsNotAddressedToUs(packetDropped)
attr title "packet drops: not addressed to us, vector(packetBytes)"
vector 270 Network.tx[8].wlan[0].mac packetDrop:vector(packetBytes) ETV
attr interpolationmode none
attr source packetDropped
attr title "packet drops, vector(packetBytes)"
vector 271 Network.tx[8].wlan[0].mac packetDropNotAddressedToUs:vector(packetBytes) ETV
attr interpolationmode none
attr source packetDropReasonIsNotAddressedToUs(packetDropped)
attr title "packet drops: not addressed to us, vector(packetBytes)"
vector 272 Network.tx[10].wlan[0].mac.dcf packetSentToPeerWithRetry:vector(packetBytes) ETV
attr interpolationmode none
attr source ieee80211Retry(packetSentToPeer)
attr title "packets sent: with retry, vector(packetBytes)"
vector 273 Network.tx[0].wlan[0].mac.dcf packetSentToPeerWithRetry:vector(packetBytes) ETV
attr interpolationmode none
attr source ieee80211Retry(packetSentToPeer)
attr title "packets sent: with retry, vector(packetBytes)"
vector 274 Network.tx[1].wlan[0].mac.dcf packetSentToPeerWithRetry:vector(packetBytes) ETV
attr interpolationmode none
attr source ieee80211Retry(packetSentToPeer)
attr title "packets sent: with retry, vector(packetBytes)"
vector 275 Network.tx[9].wlan[0].mac.dcf packetSentToPeerWithRetry:vector(packetBytes) ETV
attr interpolationmode none
attr source ieee80211Retry(packetSentToPeer)
attr title "packets sent: with retry, vector(packetBytes)"
vector 276 Network.tx[8].app[0] packetSent:vector(packetBytes) ETV
attr interpolationmode none
attr source packetSent
attr title "packets sent, vector(packetBytes)"
vector 277 Network.tx[8].udp packetSent:vector(packetBytes) ETV
attr interpolationmode none
attr source packetSent
attr title "packets sent, vector(packetBytes)"
vector 278 Network.tx[8].wlan[0].mac packetReceivedFromUpper:vector(packetBytes) ETV
attr interpolationmode none
attr title "packets received from upper layer, vector(packetBytes)"
vector 279 Network.tx[8].wlan[0].mac.dcf.channelAccess.pendingQueue packetPushed:vector(packetBytes) ETV
attr interpolationmode none
attr title "packet pushed, vector(packetBytes)"
vector 280 Network.tx[8].wlan[0].mac.dcf.channelAccess.pendingQueue queueLength:vector ETV
attr interpolationmode sample-hold
attr source "count(packetPushed) - count(packetPopped) - count(packetRemoved) - count(packetDropped)"
attr title "queue length, vector"
vector 281 Network.tx[8].wlan[0].mac.dcf.channelAccess.contention backoffPeriodGenerated:vector ETV
attr interpolationmode none
attr title "backoff periods, vector"
vector 282 Network.tx[8].wlan[0].mac.dcf.channelAccess.contention backoffActive:vector ETV
attr interpolationmode sample-hold
attr source count(backoffStarted)-count(backoffStopped)
attr title "backoff active, vector"
vector 283 Network.tx[8].wlan[0].mac.dcf.channelAccess.pendingQueue packetPopped:vector(packetBytes) ETV
attr interpolationmode none
attr title "packet popped, vector(packetBytes)"
vector 284 Network.tx[8].wlan[0].mac.dcf.channelAccess.pendingQueue queueingTime:vector ETV
attr interpolationmode none
attr source queueingTime(packetPopped)
attr title "queueing times, vector"
attr unit s
vector 285 Network.tx[8].wlan[0].mac.dcf.channelAccess.inProgressFrames queueLength:vector ETV
attr interpolationmode sample-hold
attr source "count(packetEnqueued) - count(packetDequeued)"
attr title "queue length, vector"
vector 286 Network.tx[8].wlan[0].mac.dcf datarateSelected:vector ETV
attr interpolationmode none
attr title "datarates selected, vector"
vector 287 Network.tx[8].wlan[0].mac packetSentToLower:vector(packetBytes) ETV
attr interpolationmode none
attr title "packets sent to lower layer, vector(packetBytes)"
vector 288 Network.tx[8].wlan[0].mac.dcf frameSequenceActive:vector ETV
attr interpolationmode sample-hold
attr source count(frameSequenceStarted)-count(frameSequenceFinished)
attr title "frame sequence active, vector"
vector 289 Network.tx[8].wlan[0].radio transmissionState:vector ETV
attr interpolationmode sample-hold
attr source transmissionStateChanged
attr title "Radio transmission state, vector"
vector 290 Network.tx[8].wlan[0].mac.dcf packetSentToPeer:vector(packetBytes) ETV
attr interpolationmode none
attr title "packets sent, vector(packetBytes)"
vector 291 Network.tx[8].wlan[0].mac.dcf packetSentToPeerUnicast:vector(packetBytes) ETV
attr interpolationmode none
attr source ieee80211Unicast(packetSentToPeer)
attr title "packets sent: unicast, vector(packetBytes)"
vector 292 Network.tx[8].wlan[0].mac.dcf packetSentToPeerWithoutRetry:vector(packetBytes) ETV
attr interpolationmode none
attr source ieee80211NotRetry(packetSentToPeer)
attr title "packets sent: without retry, vector(packetBytes)"
vector 293 Network.tx[8].wlan[0].mac.dcf packetSentToPeerWithRetry:vector(packetBytes) ETV
attr interpolationmode none
attr source ieee80211Retry(packetSentToPeer)
attr title "packets sent: with retry, vector(packetBytes)"
vector 294 Network.tx[7].wlan[0].mac.dcf.channelAccess.inProgressFrames queueingTime:vector ETV
attr interpolationmode none
attr source queueingTime(packetDequeued)
attr title "queueing times, vector"
vector 295 Network.tx[7].wlan[0].mac.dcf packetDrop:vector(packetBytes) ETV
attr interpolationmode none
attr source packetDropped
attr title "packet drops, vector(packetBytes)"
vector 296 Network.tx[7].wlan[0].mac.dcf packetDropRetryLimitReached:vector(packetBytes) ETV
attr interpolationmode none
attr source packetDropReasonIsRetryLimitReached(packetDropped)
attr title "packet drops: retry limit reached, vector(packetBytes)"
vector 297 Network.tx[7].wlan[0].mac packetDrop:vector(packetBytes) ETV
attr interpolationmode none
attr source packetDropped
attr title "packet drops, vector(packetBytes)"
vector 298 Network.tx[7].wlan[0].mac packetDropRetryLimitReached:vector(packetBytes) ETV
attr interpolationmode none
attr source packetDropReasonIsRetryLimitReached(packetDropped)
attr title "packet drops: retry limit reached, vector(packetBytes)"
vector 299 Network.tx[5].wlan[0].mac.dcf.channelAccess.inProgressFrames queueingTime:vector ETV
attr interpolationmode none
attr source queueingTime(packetDequeued)
attr title "queueing times, vector"
vector 300 Network.tx[5].wlan[0].mac.dcf packetDrop:vector(packetBytes) ETV
attr interpolationmode none
attr source packetDropped
attr title "packet drops, vector(packetBytes)"
vector 301 Network.tx[5].wlan[0].mac.dcf packetDropRetryLimitReached:vector(packetBytes) ETV
attr interpolationmode none
attr source packetDropReasonIsRetryLimitReached(packetDropped)
attr title "packet drops: retry limit reached, vector(packetBytes)"
vector 302 Network.tx[5].wlan[0].mac packetDrop:vector(packetBytes) ETV
attr interpolationmode none
attr source packetDropped
attr title "packet drops, vector(packetBytes)"
vector 303 Network.tx[5].wlan[0].mac packetDropRetryLimitReached:vector(packetBytes) ETV
attr interpolationmode none
attr source packetDropReasonIsRetryLimitReached(packetDropped)
attr title "packet drops: retry limit reached, vector(packetBytes)"
vector 304 Network.tx[9].wlan[0].mac.dcf.channelAccess.inProgressFrames queueingTime:vector ETV
attr interpolationmode none
attr source queueingTime(packetDequeued)
attr title "queueing times, vector"
vector 305 Network.tx[9].wlan[0].mac.dcf packetDrop:vector(packetBytes) ETV
attr interpolationmode none
attr source packetDropped
attr title "packet drops, vector(packetBytes)"
vector 306 Network.tx[9].wlan[0].mac.dcf packetDropRetryLimitReached:vector(packetBytes) ETV
attr interpolationmode none
attr source packetDropReasonIsRetryLimitReached(packetDropped)
attr title "packet drops: retry limit reached, vector(packetBytes)"
vector 307 Network.tx[9].wlan[0].mac packetDrop:vector(packetBytes) ETV
attr interpolationmode none
attr source packetDropped
attr title "packet drops, vector(packetBytes)"
vector 308 Network.tx[9].wlan[0].mac packetDropRetryLimitReached:vector(packetBytes) ETV
attr interpolationmode none
attr source packetDropReasonIsRetryLimitReached(packetDropped)
attr title "packet drops: retry limit reached, vector(packetBytes)"
vector 309 Network.tx[6].wlan[0].mac.dcf.channelAccess.inProgressFrames queueingTime:vector ETV
attr interpolationmode none
attr source queueingTime(packetDequeued)
attr title "queueing times, vector"
vector 310 Network.tx[6].wlan[0].mac.dcf packetDrop:vector(packetBytes) ETV
attr interpolationmode none
attr source packetDropped
attr title "packet drops, vector(packetBytes)"
vector 311 Network.tx[6].wlan[0].mac.dcf packetDropRetryLimitReached:vector(packetBytes) ETV
attr interpolationmode none
attr source packetDropReasonIsRetryLimitReached(packetDropped)
attr title "packet drops: retry limit reached, vector(packetBytes)"
vector 312 Network.tx[6].wlan[0].mac packetDrop:vector(packetBytes) ETV
attr interpolationmode none
attr source packetDropped
attr title "packet drops, vector(packetBytes)"
vector 313 Network.tx[6].wlan[0].mac packetDropRetryLimitReached:vector(packetBytes) ETV
attr interpolationmode none
attr source packetDropReasonIsRetryLimitReached(packetDropped)
attr title "packet drops: retry limit reached, vector(packetBytes)"
vector 314 Network.tx[4].wlan[0].mac.dcf.channelAccess.inProgressFrames queueingTime:vector ETV
attr interpolationmode none
attr source queueingTime(packetDequeued)
attr title "queueing times, vector"
vector 315 Network.tx[4].wlan[0].mac.dcf packetDrop:vector(packetBytes) ETV
attr interpolationmode none
attr source packetDropped
attr title "packet drops, vector(packetBytes)"
vector 316 Network.tx[4].wlan[0].mac.dcf packetDropRetryLimitReached:vector(packetBytes) ETV
attr interpolationmode none
attr source packetDropReasonIsRetryLimitReached(packetDropped)
attr title "packet drops: retry limit reached, vector(packetBytes)"
vector 317 Network.tx[4].wlan[0].mac packetDrop:vector(packetBytes) ETV
attr interpolationmode none
attr source packetDropped
attr title "packet drops, vector(packetBytes)"
vector 318 Network.tx[4].wlan[0].mac packetDropRetryLimitReached:vector(packetBytes) ETV
attr interpolationmode none
attr source packetDropReasonIsRetryLimitReached(packetDropped)
attr title "packet drops: retry limit reached, vector(packetBytes)"
vector 319 Network.tx[2].wlan[0].mac.dcf.channelAccess.inProgressFrames queueingTime:vector ETV
attr interpolationmode none
attr source queueingTime(packetDequeued)
attr title "queueing times, vector"
vector 320 Network.tx[2].wlan[0].mac.dcf packetDrop:vector(packetBytes) ETV
attr interpolationmode none
attr source packetDropped
attr title "packet drops, vector(packetBytes)"
vector 321 Network.tx[2].wlan[0].mac.dcf packetDropRetryLimitReached:vector(packetBytes) ETV
attr interpolationmode none
attr source packetDropReasonIsRetryLimitReached(packetDropped)
attr title "packet drops: retry limit reached, vector(packetBytes)"
vector 322 Network.tx[2].wlan[0].mac packetDrop:vector(packetBytes) ETV
attr interpolationmode none
attr source packetDropped
attr title "packet drops, vector(packetBytes)"
vector 323 Network.tx[2].wlan[0].mac packetDropRetryLimitReached:vector(packetBytes) ETV
attr interpolationmode none
attr source packetDropReasonIsRetryLimitReached(packetDropped)
attr title "packet drops: retry limit reached, vector(packetBytes)"
vector 324 Network.tx[3].wlan[0].mac.dcf.channelAccess.inProgressFrames queueingTime:vector ETV
attr interpolationmode none
attr source queueingTime(packetDequeued)
attr title "queueing times, vector"
vector 325 Network.tx[3].wlan[0].mac.dcf packetDrop:vector(packetBytes) ETV
attr interpolationmode none
attr source packetDropped
attr title "packet drops, vector(packetBytes)"
vector 326 Network.tx[3].wlan[0].mac.dcf packetDropRetryLimitReached:vector(packetBytes) ETV
attr interpolationmode none
attr source packetDropReasonIsRetryLimitReached(packetDropped)
attr title "packet drops: retry limit reached, vector(packetBytes)"
vector 327 Network.tx[3].wlan[0].mac packetDrop:vector(packetBytes) ETV
attr interpolationmode none
attr source packetDropped
attr title "packet drops, vector(packetBytes)"
vector 328 Network.tx[3].wlan[0].mac packetDropRetryLimitReached:vector(packetBytes) ETV
attr interpolationmode none
attr source packetDropReasonIsRetryLimitReached(packetDropped)
attr title "packet drops: retry limit reached, vector(packetBytes)"
vector 329 Network.tx[8].wlan[0].mac.dcf.channelAccess.inProgressFrames queueingTime:vector ETV
attr interpolationmode none
attr source queueingTime(packetDequeued)
attr title "queueing times, vector"
vector 330 Network.tx[8].wlan[0].mac.dcf packetDropRetryLimitReached:vector(packetBytes) ETV
attr interpolationmode none
attr source packetDropReasonIsRetryLimitReached(packetDropped)
attr title "packet drops: retry limit reached, vector(packetBytes)"
vector 331 Network.tx[8].wlan[0].mac packetDropRetryLimitReached:vector(packetBytes) ETV
attr interpolationmode none
attr source packetDropReasonIsRetryLimitReached(packetDropped)
attr title "packet drops: retry limit reached, vector(packetBytes)"
vector 332 Network.tx[10].wlan[0].mac.dcf.channelAccess.inProgressFrames queueingTime:vector ETV
attr interpolationmode none
attr source queueingTime(packetDequeued)
attr title "queueing times, vector"
vector 333 Network.tx[10].wlan[0].mac.dcf packetDrop:vector(packetBytes) ETV
attr interpolationmode none
attr source packetDropped
attr title "packet drops, vector(packetBytes)"
vector 334 Network.tx[10].wlan[0].mac.dcf packetDropRetryLimitReached:vector(packetBytes) ETV
attr interpolationmode none
attr source packetDropReasonIsRetryLimitReached(packetDropped)
attr title "packet drops: retry limit reached, vector(packetBytes)"
vector 335 Network.tx[10].wlan[0].mac packetDrop:vector(packetBytes) ETV
attr interpolationmode none
attr source packetDropped
attr title "packet drops, vector(packetBytes)"
vector 336 Network.tx[10].wlan[0].mac packetDropRetryLimitReached:vector(packetBytes) ETV
attr interpolationmode none
attr source packetDropReasonIsRetryLimitReached(packetDropped)
attr title "packet drops: retry limit reached, vector(packetBytes)"
vector 337 Network.tx[0].wlan[0].mac.dcf.channelAccess.inProgressFrames queueingTime:vector ETV
attr interpolationmode none
attr source queueingTime(packetDequeued)
attr title "queueing times, vector"
vector 338 Network.tx[0].wlan[0].mac.dcf packetDrop:vector(packetBytes) ETV
attr interpolationmode none
attr source packetDropped
attr title "packet drops, vector(packetBytes)"
vector 339 Network.tx[0].wlan[0].mac.dcf packetDropRetryLimitReached:vector(packetBytes) ETV
attr interpolationmode none
attr source packetDropReasonIsRetryLimitReached(packetDropped)
attr title "packet drops: retry limit reached, vector(packetBytes)"
vector 340 Network.tx[0].wlan[0].mac packetDrop:vector(packetBytes) ETV
attr interpolationmode none
attr source packetDropped
attr title "packet drops, vector(packetBytes)"
vector 341 Network.tx[0].wlan[0].mac packetDropRetryLimitReached:vector(packetBytes) ETV
attr interpolationmode none
attr source packetDropReasonIsRetryLimitReached(packetDropped)
attr title "packet drops: retry limit reached, vector(packetBytes)"
vector 342 Network.tx[1].wlan[0].mac.dcf.channelAccess.inProgressFrames queueingTime:vector ETV
attr interpolationmode none
attr source queueingTime(packetDequeued)
attr title "queueing times, vector"
vector 343 Network.tx[1].wlan[0].mac.dcf packetDrop:vector(packetBytes) ETV
attr interpolationmode none
attr source packetDropped
attr title "packet drops, vector(packetBytes)"
vector 344 Network.tx[1].wlan[0].mac.dcf packetDropRetryLimitReached:vector(packetBytes) ETV
attr interpolationmode none
attr source packetDropReasonIsRetryLimitReached(packetDropped)
attr title "packet drops: retry limit reached, vector(packetBytes)"
vector 345 Network.tx[1].wlan[0].mac packetDrop:vector(packetBytes) ETV
attr interpolationmode none
attr source packetDropped
attr title "packet drops, vector(packetBytes)"
vector 346 Network.tx[1].wlan[0].mac packetDropRetryLimitReached:vector(packetBytes) ETV
attr interpolationmode none
attr source packetDropReasonIsRetryLimitReached(packetDropped)
attr title "packet drops: retry limit reached, vector(packetBytes)"
vector 347 Network.frw[7].wlan[0].mac packetReceivedFromLower:vector(packetBytes) ETV
attr interpolationmode none
attr title "packets received from lower layer, vector(packetBytes)"
vector 348 Network.frw[7].wlan[0].mac.dcf packetReceivedFromPeer:vector(packetBytes) ETV
attr interpolationmode none
attr title "packets received, vector(packetBytes)"
vector 349 Network.frw[7].wlan[0].mac.dcf packetReceivedFromPeerUnicast:vector(packetBytes) ETV
attr interpolationmode none
attr source ieee80211Unicast(packetReceivedFromPeer)
attr title "packets received: unicast, vector(packetBytes)"
vector 350 Network.frw[7].wlan[0].mac.dcf packetReceivedFromPeerWithoutRetry:vector(packetBytes) ETV
attr interpolationmode none
attr source ieee80211NotRetry(packetReceivedFromPeer)
attr title "packets received: without retry, vector(packetBytes)"
vector 351 Network.frw[7].wlan[0].mac.dcf datarateSelected:vector ETV
attr interpolationmode none
attr title "datarates selected, vector"
vector 352 Network.frw[7].wlan[0].mac packetSentToUpper:vector(packetBytes) ETV
attr interpolationmode none
attr title "packets sent to upper layer, vector(packetBytes)"
vector 353 Network.frw[7].wlan[0].mac packetReceivedFromUpper:vector(packetBytes) ETV
attr interpolationmode none
attr title "packets received from upper layer, vector(packetBytes)"
vector 354 Network.frw[7].wlan[0].mac.dcf.channelAccess.pendingQueue packetPushed:vector(packetBytes) ETV
attr interpolationmode none
attr title "packet pushed, vector(packetBytes)"
vector 355 Network.frw[7].wlan[0].mac.dcf.channelAccess.pendingQueue queueLength:vector ETV
attr interpolationmode sample-hold
attr source "count(packetPushed) - count(packetPopped) - count(packetRemoved) - count(packetDropped)"
attr title "queue length, vector"
vector 356 Network.frw[7].wlan[0].mac.dcf.channelAccess.contention backoffPeriodGenerated:vector ETV
attr interpolationmode none
attr title "backoff periods, vector"
vector 357 Network.frw[7].wlan[0].mac.dcf.channelAccess.contention backoffActive:vector ETV
attr interpolationmode sample-hold
attr source count(backoffStarted)-count(backoffStopped)
attr title "backoff active, vector"
vector 358 Network.frw[7].wlan[0].mac packetSentToLower:vector(packetBytes) ETV
attr interpolationmode none
attr title "packets sent to lower layer, vector(packetBytes)"
vector 359 Network.frw[7].wlan[0].radio transmissionState:vector ETV
attr interpolationmode sample-hold
attr source transmissionStateChanged
attr title "Radio transmission state, vector"
vector 360 Network.frw[7].wlan[0].mac.dcf packetSentToPeer:vector(packetBytes) ETV
attr interpolationmode none
attr title "packets sent, vector(packetBytes)"
vector 361 Network.frw[7].wlan[0].mac.dcf packetSentToPeerUnicast:vector(packetBytes) ETV
attr interpolationmode none
attr source ieee80211Unicast(packetSentToPeer)
attr title "packets sent: unicast, vector(packetBytes)"
vector 362 Network.frw[7].wlan[0].mac.dcf packetSentToPeerWithoutRetry:vector(packetBytes) ETV
attr interpolationmode none
attr source ieee80211NotRetry(packetSentToPeer)
attr title "packets sent: without retry, vector(packetBytes)"
vector 363 Network.frw[7].wlan[0].mac.dcf.channelAccess.pendingQueue packetPopped:vector(packetBytes) ETV
attr interpolationmode none
attr title "packet popped, vector(packetBytes)"
vector 364 Network.frw[7].wlan[0].mac.dcf.channelAccess.pendingQueue queueingTime:vector ETV
attr interpolationmode none
attr source queueingTime(packetPopped)
attr title "queueing times, vector"
attr unit s
vector 365 Network.frw[7].wlan[0].mac.dcf.channelAccess.inProgressFrames queueLength:vector ETV
attr interpolationmode sample-hold
attr source "count(packetEnqueued) - count(packetDequeued)"
attr title "queue length, vector"
vector 366 Network.frw[7].wlan[0].mac.dcf frameSequenceActive:vector ETV
attr interpolationmode sample-hold
attr source count(frameSequenceStarted)-count(frameSequenceFinished)
attr title "frame sequence active, vector"
vector 367 Network.frw[7].wlan[0].mac.rx nav:vector ETV
attr interpolationmode linear
attr source navChanged
attr title "network allocation vector, vector"
vector 368 Network.frw[7].wlan[0].mac.dcf packetSentToPeerWithRetry:vector(packetBytes) ETV
attr interpolationmode none
attr source ieee80211Retry(packetSentToPeer)
attr title "packets sent: with retry, vector(packetBytes)"
vector 369 Network.frw[7].wlan[0].mac.dcf.channelAccess.inProgressFrames queueingTime:vector ETV
attr interpolationmode none
attr source queueingTime(packetDequeued)
attr title "queueing times, vector"
vector 370 Network.frw[7].wlan[0].mac.dcf packetDrop:vector(packetBytes) ETV
attr interpolationmode none
attr source packetDropped
attr title "packet drops, vector(packetBytes)"
vector 371 Network.frw[7].wlan[0].mac.dcf packetDropRetryLimitReached:vector(packetBytes) ETV
attr interpolationmode none
attr source packetDropReasonIsRetryLimitReached(packetDropped)
attr title "packet drops: retry limit reached, vector(packetBytes)"
vector 372 Network.frw[7].wlan[0].mac packetDrop:vector(packetBytes) ETV
attr interpolationmode none
attr source packetDropped
attr title "packet drops, vector(packetBytes)"
vector 373 Network.frw[7].wlan[0].mac packetDropRetryLimitReached:vector(packetBytes) ETV
attr interpolationmode none
attr source packetDropReasonIsRetryLimitReached(packetDropped)
attr title "packet drops: retry limit reached, vector(packetBytes)"
vector 374 Network.tx[7].wlan[0].mac packetReceivedFromLower:vector(packetBytes) ETV
attr interpolationmode none
attr title "packets received from lower layer, vector(packetBytes)"
vector 375 Network.tx[7].wlan[0].mac.dcf packetDropNotAddressedToUs:vector(packetBytes) ETV
attr interpolationmode none
attr source packetDropReasonIsNotAddressedToUs(packetDropped)
attr title "packet drops: not addressed to us, vector(packetBytes)"
vector 376 Network.tx[7].wlan[0].mac packetDropNotAddressedToUs:vector(packetBytes) ETV
attr interpolationmode none
attr source packetDropReasonIsNotAddressedToUs(packetDropped)
attr title "packet drops: not addressed to us, vector(packetBytes)"
vector 377 Network.frw[7].wlan[0].mac.dcf packetReceivedFromPeerWithRetry:vector(packetBytes) ETV
attr interpolationmode none
attr source ieee80211Retry(packetReceivedFromPeer)
attr title "packets received: with retry, vector(packetBytes)"
vector 378 Network.tx[0].wlan[0].mac packetReceivedFromLower:vector(packetBytes) ETV
attr interpolationmode none
attr title "packets received from lower layer, vector(packetBytes)"
vector 379 Network.tx[0].wlan[0].mac.dcf packetDropNotAddressedToUs:vector(packetBytes) ETV
attr interpolationmode none
attr source packetDropReasonIsNotAddressedToUs(packetDropped)
attr title "packet drops: not addressed to us, vector(packetBytes)"
vector 380 Network.tx[0].wlan[0].mac packetDropNotAddressedToUs:vector(packetBytes) ETV
attr interpolationmode none
attr source packetDropReasonIsNotAddressedToUs(packetDropped)
attr title "packet drops: not addressed to us, vector(packetBytes)"
vector 381 Network.tx[0].wlan[0].mac.dcf packetReceivedFromPeer:vector(packetBytes) ETV
attr interpolationmode none
attr title "packets received, vector(packetBytes)"
vector 382 Network.tx[0].wlan[0].mac.dcf packetReceivedFromPeerUnicast:vector(packetBytes) ETV
attr interpolationmode none
attr source ieee80211Unicast(packetReceivedFromPeer)
attr title "packets received: unicast, vector(packetBytes)"
vector 383 Network.tx[0].wlan[0].mac.dcf packetReceivedFromPeerWithoutRetry:vector(packetBytes) ETV
attr interpolationmode none
attr source ieee80211NotRetry(packetReceivedFromPeer)
attr title "packets received: without retry, vector(packetBytes)"
vector 384 Network.frw[0].wlan[0].mac packetReceivedFromLower:vector(packetBytes) ETV
attr interpolationmode none
attr title "packets received from lower layer, vector(packetBytes)"
vector 385 Network.frw[0].wlan[0].mac.dcf packetReceivedFromPeer:vector(packetBytes) ETV
attr interpolationmode none
attr title "packets received, vector(packetBytes)"
vector 386 Network.frw[0].wlan[0].mac.dcf packetReceivedFromPeerUnicast:vector(packetBytes) ETV
attr interpolationmode none
attr source ieee80211Unicast(packetReceivedFromPeer)
attr title "packets received: unicast, vector(packetBytes)"
vector 387 Network.frw[0].wlan[0].mac.dcf packetReceivedFromPeerWithRetry:vector(packetBytes) ETV
attr interpolationmode none
attr source ieee80211Retry(packetReceivedFromPeer)
attr title "packets received: with retry, vector(packetBytes)"
vector 388 Network.frw[0].wlan[0].mac.dcf datarateSelected:vector ETV
attr interpolationmode none
attr title "datarates selected, vector"
vector 389 Network.frw[0].wlan[0].mac packetSentToUpper:vector(packetBytes) ETV
attr interpolationmode none
attr title "packets sent to upper layer, vector(packetBytes)"
vector 390 Network.frw[0].wlan[0].mac packetReceivedFromUpper:vector(packetBytes) ETV
attr interpolationmode none
attr title "packets received from upper layer, vector(packetBytes)"
vector 391 Network.frw[0].wlan[0].mac.dcf.channelAccess.pendingQueue packetPushed:vector(packetBytes) ETV
attr interpolationmode none
attr title "packet pushed, vector(packetBytes)"
vector 392 Network.frw[0].wlan[0].mac.dcf.channelAccess.pendingQueue queueLength:vector ETV
attr interpolationmode sample-hold
attr source "count(packetPushed) - count(packetPopped) - count(packetRemoved) - count(packetDropped)"
attr title "queue length, vector"
vector 393 Network.frw[0].wlan[0].mac.dcf.channelAccess.contention backoffPeriodGenerated:vector ETV
attr interpolationmode none
attr title "backoff periods, vector"
vector 394 Network.frw[0].wlan[0].mac.dcf.channelAccess.contention backoffActive:vector ETV
attr interpolationmode sample-hold
[...]
513	148754	3.808135299629	14
513	153300	3.909271282753	14
513	157536	4.008831267076	14
513	161144	4.108311252644	14
513	165201	4.208135239805	14
513	169310	4.308135229119	14
513	173551	4.408135221223	14
513	177838	4.508135216726	14
513	182128	4.60813521605	14
513	186234	4.708135219266	14
513	190480	4.808135226057	14
513	194816	4.908135235848	14
513	199015	5.008135244061	14
514	137384	3.52183135083	14
514	144846	3.708135317033	14
514	148754	3.808135299629	14
514	153300	3.909271282753	14
514	157536	4.008831267076	14
514	161144	4.108311252644	14
514	165201	4.208135239805	14
514	169310	4.308135229119	14
514	173551	4.408135221223	14
514	177838	4.508135216726	14
514	182128	4.60813521605	14
514	186234	4.708135219266	14
514	190480	4.808135226057	14
514	194816	4.908135235848	14
514	199015	5.008135244061	14
vector 515 Network.tx[0].app[0] throughput:vector ETV
attr source throughput(packetReceived)
attr title "throughput, vector"
attr unit bps
vector 516 Network.tx[1].app[0] throughput:vector ETV
attr source throughput(packetReceived)
attr title "throughput, vector"
attr unit bps
vector 517 Network.tx[2].app[0] throughput:vector ETV
attr source throughput(packetReceived)
attr title "throughput, vector"
attr unit bps
vector 518 Network.tx[3].app[0] throughput:vector ETV
attr source throughput(packetReceived)
attr title "throughput, vector"
attr unit bps
vector 519 Network.tx[4].app[0] throughput:vector ETV
attr source throughput(packetReceived)
attr title "throughput, vector"
attr unit bps
vector 520 Network.tx[5].app[0] throughput:vector ETV
attr source throughput(packetReceived)
attr title "throughput, vector"
attr unit bps
vector 521 Network.tx[6].app[0] throughput:vector ETV
attr source throughput(packetReceived)
attr title "throughput, vector"
attr unit bps
vector 522 Network.tx[7].app[0] throughput:vector ETV
attr source throughput(packetReceived)
attr title "throughput, vector"
attr unit bps
vector 523 Network.tx[8].app[0] throughput:vector ETV
attr source throughput(packetReceived)
attr title "throughput, vector"
attr unit bps
vector 524 Network.tx[9].app[0] throughput:vector ETV
attr source throughput(packetReceived)
attr title "throughput, vector"
attr unit bps
vector 525 Network.tx[10].app[0] throughput:vector ETV
attr source throughput(packetReceived)
attr title "throughput, vector"
attr unit bps
vector 526 Network.frw[0].app[0] throughput:vector ETV
attr source throughput(packetReceived)
attr title "throughput, vector"
attr unit bps
vector 527 Network.frw[1].app[0] throughput:vector ETV
attr source throughput(packetReceived)
attr title "throughput, vector"
attr unit bps
vector 528 Network.frw[2].app[0] throughput:vector ETV
attr source throughput(packetReceived)
attr title "throughput, vector"
attr unit bps
vector 529 Network.frw[3].app[0] throughput:vector ETV
attr source throughput(packetReceived)
attr title "throughput, vector"
attr unit bps
vector 530 Network.frw[4].app[0] throughput:vector ETV
attr source throughput(packetReceived)
attr title "throughput, vector"
attr unit bps
vector 531 Network.frw[5].app[0] throughput:vector ETV
attr source throughput(packetReceived)
attr title "throughput, vector"
attr unit bps
vector 532 Network.frw[6].app[0] throughput:vector ETV
attr source throughput(packetReceived)
attr title "throughput, vector"
attr unit bps
vector 533 Network.frw[7].app[0] throughput:vector ETV
attr source throughput(packetReceived)
attr title "throughput, vector"
attr unit bps
418	200192	5.019880897652	40239.631731091
515	200192	0.1	0
515	200192	0.2	0
515	200192	0.3	0
515	200192	0.4	0
515	200192	0.5	0
515	200192	0.6	0
515	200192	0.7	0
515	200192	0.8	0
515	200192	0.9	0
515	200192	1	0
515	200192	1.1	0
515	200192	1.2	0
515	200192	1.3	0
515	200192	1.4	0
515	200192	1.5	0
515	200192	1.6	0
515	200192	1.7	0
515	200192	1.8	0
515	200192	1.9	0
515	200192	2	0
515	200192	2.1	0
515	200192	2.2	0
515	200192	2.3	0
515	200192	2.4	0
515	200192	2.5	0
515	200192	2.6	0
515	200192	2.7	0
515	200192	2.8	0
515	200192	2.9	0
515	200192	3	0
515	200192	3.1	0
515	200192	3.2	0
515	200192	3.3	0
515	200192	3.4	0
515	200192	3.5	0
515	200192	3.6	0
515	200192	3.7	0
515	200192	3.8	0
515	200192	3.9	0
515	200192	4	0
515	200192	4.1	0
515	200192	4.2	0
515	200192	4.3	0
515	200192	4.4	0
515	200192	4.5	0
515	200192	4.6	0
515	200192	4.7	0
515	200192	4.8	0
515	200192	4.9	0
515	200192	5	0
515	200192	5.019880897652	0
516	200192	0.1	0
516	200192	0.2	0
516	200192	0.3	0
516	200192	0.4	0
516	200192	0.5	0
516	200192	0.6	0
516	200192	0.7	0
516	200192	0.8	0
516	200192	0.9	0
516	200192	1	0
516	200192	1.1	0
516	200192	1.2	0
516	200192	1.3	0
516	200192	1.4	0
516	200192	1.5	0
516	200192	1.6	0
516	200192	1.7	0
516	200192	1.8	0
516	200192	1.9	0
516	200192	2	0
516	200192	2.1	0
516	200192	2.2	0
516	200192	2.3	0
516	200192	2.4	0
516	200192	2.5	0
516	200192	2.6	0
516	200192	2.7	0
516	200192	2.8	0
516	200192	2.9	0
516	200192	3	0
516	200192	3.1	0
516	200192	3.2	0
516	200192	3.3	0
516	200192	3.4	0
516	200192	3.5	0
516	200192	3.6	0
516	200192	3.7	0
516	200192	3.8	0
516	200192	3.9	0
516	200192	4	0
516	200192	4.1	0
516	200192	4.2	0
516	200192	4.3	0
516	200192	4.4	0
516	200192	4.5	0
516	200192	4.6	0
516	200192	4.7	0
516	200192	4.8	0
516	200192	4.9	0
516	200192	5	0
516	200192	5.019880897652	0
517	200192	0.1	0
517	200192	0.2	0
517	200192	0.3	0
517	200192	0.4	0
517	200192	0.5	0
517	200192	0.6	0
517	200192	0.7	0
517	200192	0.8	0
517	200192	0.9	0
517	200192	1	0
517	200192	1.1	0
517	200192	1.2	0
517	200192	1.3	0
517	200192	1.4	0
517	200192	1.5	0
517	200192	1.6	0
517	200192	1.7	0
517	200192	1.8	0
517	200192	1.9	0
517	200192	2	0
517	200192	2.1	0
517	200192	2.2	0
517	200192	2.3	0
517	200192	2.4	0
517	200192	2.5	0
517	200192	2.6	0
517	200192	2.7	0
517	200192	2.8	0
517	200192	2.9	0
517	200192	3	0
517	200192	3.1	0
517	200192	3.2	0
517	200192	3.3	0
517	200192	3.4	0
517	200192	3.5	0
517	200192	3.6	0
517	200192	3.7	0
517	200192	3.8	0
517	200192	3.9	0
517	200192	4	0
517	200192	4.1	0
517	200192	4.2	0
517	200192	4.3	0
517	200192	4.4	0
517	200192	4.5	0
517	200192	4.6	0
517	200192	4.7	0
517	200192	4.8	0
517	200192	4.9	0
517	200192	5	0
517	200192	5.019880897652	0
518	200192	0.1	0
518	200192	0.2	0
518	200192	0.3	0
518	200192	0.4	0
518	200192	0.5	0
518	200192	0.6	0
518	200192	0.7	0
518	200192	0.8	0
518	200192	0.9	0
518	200192	1	0
518	200192	1.1	0
518	200192	1.2	0
518	200192	1.3	0
518	200192	1.4	0
518	200192	1.5	0
518	200192	1.6	0
518	200192	1.7	0
518	200192	1.8	0
518	200192	1.9	0
518	200192	2	0
518	200192	2.1	0
518	200192	2.2	0
518	200192	2.3	0
518	200192	2.4	0
518	200192	2.5	0
518	200192	2.6	0
518	200192	2.7	0
518	200192	2.8	0
518	200192	2.9	0
518	200192	3	0
518	200192	3.1	0
518	200192	3.2	0
518	200192	3.3	0
518	200192	3.4	0
518	200192	3.5	0
518	200192	3.6	0
518	200192	3.7	0
518	200192	3.8	0
518	200192	3.9	0
518	200192	4	0
518	200192	4.1	0
518	200192	4.2	0
518	200192	4.3	0
518	200192	4.4	0
518	200192	4.5	0
518	200192	4.6	0
518	200192	4.7	0
518	200192	4.8	0
518	200192	4.9	0
518	200192	5	0
518	200192	5.019880897652	0
519	200192	0.1	0
519	200192	0.2	0
519	200192	0.3	0
519	200192	0.4	0
519	200192	0.5	0
519	200192	0.6	0
519	200192	0.7	0
519	200192	0.8	0
519	200192	0.9	0
519	200192	1	0
519	200192	1.1	0
519	200192	1.2	0
519	200192	1.3	0
519	200192	1.4	0
519	200192	1.5	0
519	200192	1.6	0
519	200192	1.7	0
519	200192	1.8	0
519	200192	1.9	0
519	200192	2	0
519	200192	2.1	0
519	200192	2.2	0
519	200192	2.3	0
519	200192	2.4	0
519	200192	2.5	0
519	200192	2.6	0
519	200192	2.7	0
519	200192	2.8	0
519	200192	2.9	0
519	200192	3	0
519	200192	3.1	0
519	200192	3.2	0
519	200192	3.3	0
519	200192	3.4	0
519	200192	3.5	0
519	200192	3.6	0
519	200192	3.7	0
519	200192	3.8	0
519	200192	3.9	0
519	200192	4	0
519	200192	4.1	0
519	200192	4.2	0
519	200192	4.3	0
519	200192	4.4	0
519	200192	4.5	0
519	200192	4.6	0
519	200192	4.7	0
519	200192	4.8	0
519	200192	4.9	0
519	200192	5	0
519	200192	5.019880897652	0
520	200192	0.1	0
520	200192	0.2	0
520	200192	0.3	0
520	200192	0.4	0
520	200192	0.5	0
520	200192	0.6	0
520	200192	0.7	0
520	200192	0.8	0
520	200192	0.9	0
520	200192	1	0
520	200192	1.1	0
520	200192	1.2	0
520	200192	1.3	0
520	200192	1.4	0
520	200192	1.5	0
520	200192	1.6	0
520	200192	1.7	0
520	200192	1.8	0
520	200192	1.9	0
520	200192	2	0
520	200192	2.1	0
520	200192	2.2	0
520	200192	2.3	0
520	200192	2.4	0
520	200192	2.5	0
520	200192	2.6	0
520	200192	2.7	0
520	200192	2.8	0
520	200192	2.9	0
520	200192	3	0
520	200192	3.1	0
520	200192	3.2	0
520	200192	3.3	0
520	200192	3.4	0
520	200192	3.5	0
520	200192	3.6	0
520	200192	3.7	0
520	200192	3.8	0
520	200192	3.9	0
520	200192	4	0
520	200192	4.1	0
520	200192	4.2	0
520	200192	4.3	0
520	200192	4.4	0
520	200192	4.5	0
520	200192	4.6	0
520	200192	4.7	0
520	200192	4.8	0
520	200192	4.9	0
520	200192	5	0
520	200192	5.019880897652	0
521	200192	0.1	0
521	200192	0.2	0
521	200192	0.3	0
521	200192	0.4	0
521	200192	0.5	0
521	200192	0.6	0
521	200192	0.7	0
521	200192	0.8	0
521	200192	0.9	0
521	200192	1	0
521	200192	1.1	0
521	200192	1.2	0
521	200192	1.3	0
521	200192	1.4	0
521	200192	1.5	0
521	200192	1.6	0
521	200192	1.7	0
521	200192	1.8	0
521	200192	1.9	0
521	200192	2	0
521	200192	2.1	0
521	200192	2.2	0
521	200192	2.3	0
521	200192	2.4	0
521	200192	2.5	0
521	200192	2.6	0
521	200192	2.7	0
521	200192	2.8	0
521	200192	2.9	0
521	200192	3	0
521	200192	3.1	0
521	200192	3.2	0
521	200192	3.3	0
521	200192	3.4	0
521	200192	3.5	0
521	200192	3.6	0
521	200192	3.7	0
521	200192	3.8	0
521	200192	3.9	0
521	200192	4	0
521	200192	4.1	0
521	200192	4.2	0
521	200192	4.3	0
521	200192	4.4	0
521	200192	4.5	0
521	200192	4.6	0
521	200192	4.7	0
521	200192	4.8	0
521	200192	4.9	0
521	200192	5	0
521	200192	5.019880897652	0
522	200192	0.1	0
522	200192	0.2	0
522	200192	0.3	0
522	200192	0.4	0
522	200192	0.5	0
522	200192	0.6	0
522	200192	0.7	0
522	200192	0.8	0
522	200192	0.9	0
522	200192	1	0
522	200192	1.1	0
522	200192	1.2	0
522	200192	1.3	0
522	200192	1.4	0
522	200192	1.5	0
522	200192	1.6	0
522	200192	1.7	0
522	200192	1.8	0
522	200192	1.9	0
522	200192	2	0
522	200192	2.1	0
522	200192	2.2	0
522	200192	2.3	0
522	200192	2.4	0
522	200192	2.5	0
522	200192	2.6	0
522	200192	2.7	0
522	200192	2.8	0
522	200192	2.9	0
522	200192	3	0
522	200192	3.1	0
522	200192	3.2	0
522	200192	3.3	0
522	200192	3.4	0
522	200192	3.5	0
522	200192	3.6	0
522	200192	3.7	0
522	200192	3.8	0
522	200192	3.9	0
522	200192	4	0
522	200192	4.1	0
522	200192	4.2	0
522	200192	4.3	0
522	200192	4.4	0
522	200192	4.5	0
522	200192	4.6	0
522	200192	4.7	0
522	200192	4.8	0
522	200192	4.9	0
522	200192	5	0
522	200192	5.019880897652	0
523	200192	0.1	0
523	200192	0.2	0
523	200192	0.3	0
523	200192	0.4	0
523	200192	0.5	0
523	200192	0.6	0
523	200192	0.7	0
523	200192	0.8	0
523	200192	0.9	0
523	200192	1	0
523	200192	1.1	0
523	200192	1.2	0
523	200192	1.3	0
523	200192	1.4	0
523	200192	1.5	0
523	200192	1.6	0
523	200192	1.7	0
523	200192	1.8	0
523	200192	1.9	0
523	200192	2	0
523	200192	2.1	0
523	200192	2.2	0
523	200192	2.3	0
523	200192	2.4	0
523	200192	2.5	0
523	200192	2.6	0
523	200192	2.7	0
523	200192	2.8	0
523	200192	2.9	0
523	200192	3	0
523	200192	3.1	0
523	200192	3.2	0
523	200192	3.3	0
523	200192	3.4	0
523	200192	3.5	0
523	200192	3.6	0
523	200192	3.7	0
523	200192	3.8	0
523	200192	3.9	0
523	200192	4	0
523	200192	4.1	0
523	200192	4.2	0
523	200192	4.3	0
523	200192	4.4	0
523	200192	4.5	0
523	200192	4.6	0
523	200192	4.7	0
523	200192	4.8	0
523	200192	4.9	0
523	200192	5	0
523	200192	5.019880897652	0
524	200192	0.1	0
524	200192	0.2	0
524	200192	0.3	0
524	200192	0.4	0
524	200192	0.5	0
524	200192	0.6	0
524	200192	0.7	0
524	200192	0.8	0
524	200192	0.9	0
524	200192	1	0
524	200192	1.1	0
524	200192	1.2	0
524	200192	1.3	0
524	200192	1.4	0
524	200192	1.5	0
524	200192	1.6	0
524	200192	1.7	0
524	200192	1.8	0
524	200192	1.9	0
524	200192	2	0
524	200192	2.1	0
524	200192	2.2	0
524	200192	2.3	0
524	200192	2.4	0
524	200192	2.5	0
524	200192	2.6	0
524	200192	2.7	0
524	200192	2.8	0
524	200192	2.9	0
524	200192	3	0
524	200192	3.1	0
524	200192	3.2	0
524	200192	3.3	0
524	200192	3.4	0
524	200192	3.5	0
524	200192	3.6	0
524	200192	3.7	0
524	200192	3.8	0
524	200192	3.9	0
524	200192	4	0
524	200192	4.1	0
524	200192	4.2	0
524	200192	4.3	0
524	200192	4.4	0
524	200192	4.5	0
524	200192	4.6	0
524	200192	4.7	0
524	200192	4.8	0
524	200192	4.9	0
524	200192	5	0
524	200192	5.019880897652	0
525	200192	0.1	0
525	200192	0.2	0
525	200192	0.3	0
525	200192	0.4	0
525	200192	0.5	0
525	200192	0.6	0
525	200192	0.7	0
525	200192	0.8	0
525	200192	0.9	0
525	200192	1	0
525	200192	1.1	0
525	200192	1.2	0
525	200192	1.3	0
525	200192	1.4	0
525	200192	1.5	0
525	200192	1.6	0
525	200192	1.7	0
525	200192	1.8	0
525	200192	1.9	0
525	200192	2	0
525	200192	2.1	0
525	200192	2.2	0
525	200192	2.3	0
525	200192	2.4	0
525	200192	2.5	0
525	200192	2.6	0
525	200192	2.7	0
525	200192	2.8	0
525	200192	2.9	0
525	200192	3	0
525	200192	3.1	0
525	200192	3.2	0
525	200192	3.3	0
525	200192	3.4	0
525	200192	3.5	0
525	200192	3.6	0
525	200192	3.7	0
525	200192	3.8	0
525	200192	3.9	0
525	200192	4	0
525	200192	4.1	0
525	200192	4.2	0
525	200192	4.3	0
525	200192	4.4	0
525	200192	4.5	0
525	200192	4.6	0
525	200192	4.7	0
525	200192	4.8	0
525	200192	4.9	0
525	200192	5	0
525	200192	5.019880897652	0
526	200192	0.1	0
526	200192	0.2	0
526	200192	0.3	0
526	200192	0.4	0
526	200192	0.5	0
526	200192	0.6	0
526	200192	0.7	0
526	200192	0.8	0
526	200192	0.9	0
526	200192	1	0
526	200192	1.1	0
526	200192	1.2	0
526	200192	1.3	0
526	200192	1.4	0
526	200192	1.5	0
526	200192	1.6	0
526	200192	1.7	0
526	200192	1.8	0
526	200192	1.9	0
526	200192	2	0
526	200192	2.1	0
526	200192	2.2	0
526	200192	2.3	0
526	200192	2.4	0
526	200192	2.5	0
526	200192	2.6	0
526	200192	2.7	0
526	200192	2.8	0
526	200192	2.9	0
526	200192	3	0
526	200192	3.1	0
526	200192	3.2	0
526	200192	3.3	0
526	200192	3.4	0
526	200192	3.5	0
526	200192	3.6	0
526	200192	3.7	0
526	200192	3.8	0
526	200192	3.9	0
526	200192	4	0
526	200192	4.1	0
526	200192	4.2	0
526	200192	4.3	0
526	200192	4.4	0
526	200192	4.5	0
526	200192	4.6	0
526	200192	4.7	0
526	200192	4.8	0
526	200192	4.9	0
526	200192	5	0
526	200192	5.019880897652	0
527	200192	0.1	0
527	200192	0.2	0
527	200192	0.3	0
527	200192	0.4	0
527	200192	0.5	0
527	200192	0.6	0
527	200192	0.7	0
527	200192	0.8	0
527	200192	0.9	0
527	200192	1	0
527	200192	1.1	0
527	200192	1.2	0
527	200192	1.3	0
527	200192	1.4	0
527	200192	1.5	0
527	200192	1.6	0
527	200192	1.7	0
527	200192	1.8	0
527	200192	1.9	0
527	200192	2	0
527	200192	2.1	0
527	200192	2.2	0
527	200192	2.3	0
527	200192	2.4	0
527	200192	2.5	0
527	200192	2.6	0
527	200192	2.7	0
527	200192	2.8	0
527	200192	2.9	0
527	200192	3	0
527	200192	3.1	0
527	200192	3.2	0
527	200192	3.3	0
527	200192	3.4	0
527	200192	3.5	0
527	200192	3.6	0
527	200192	3.7	0
527	200192	3.8	0
527	200192	3.9	0
527	200192	4	0
527	200192	4.1	0
527	200192	4.2	0
527	200192	4.3	0
527	200192	4.4	0
527	200192	4.5	0
527	200192	4.6	0
527	200192	4.7	0
527	200192	4.8	0
527	200192	4.9	0
527	200192	5	0
527	200192	5.019880897652	0
528	200192	0.1	0
528	200192	0.2	0
528	200192	0.3	0
528	200192	0.4	0
528	200192	0.5	0
528	200192	0.6	0
528	200192	0.7	0
528	200192	0.8	0
528	200192	0.9	0
528	200192	1	0
528	200192	1.1	0
528	200192	1.2	0
528	200192	1.3	0
528	200192	1.4	0
528	200192	1.5	0
528	200192	1.6	0
528	200192	1.7	0
528	200192	1.8	0
528	200192	1.9	0
528	200192	2	0
528	200192	2.1	0
528	200192	2.2	0
528	200192	2.3	0
528	200192	2.4	0
528	200192	2.5	0
528	200192	2.6	0
528	200192	2.7	0
528	200192	2.8	0
528	200192	2.9	0
528	200192	3	0
528	200192	3.1	0
528	200192	3.2	0
528	200192	3.3	0
528	200192	3.4	0
528	200192	3.5	0
528	200192	3.6	0
528	200192	3.7	0
528	200192	3.8	0
528	200192	3.9	0
528	200192	4	0
528	200192	4.1	0
528	200192	4.2	0
528	200192	4.3	0
528	200192	4.4	0
528	200192	4.5	0
528	200192	4.6	0
528	200192	4.7	0
528	200192	4.8	0
528	200192	4.9	0
528	200192	5	0
528	200192	5.019880897652	0
529	200192	0.1	0
529	200192	0.2	0
529	200192	0.3	0
529	200192	0.4	0
529	200192	0.5	0
529	200192	0.6	0
529	200192	0.7	0
529	200192	0.8	0
529	200192	0.9	0
529	200192	1	0
529	200192	1.1	0
529	200192	1.2	0
529	200192	1.3	0
529	200192	1.4	0
529	200192	1.5	0
529	200192	1.6	0
529	200192	1.7	0
529	200192	1.8	0
529	200192	1.9	0
529	200192	2	0
529	200192	2.1	0
529	200192	2.2	0
529	200192	2.3	0
529	200192	2.4	0
529	200192	2.5	0
529	200192	2.6	0
529	200192	2.7	0
529	200192	2.8	0
529	200192	2.9	0
529	200192	3	0
529	200192	3.1	0
529	200192	3.2	0
529	200192	3.3	0
529	200192	3.4	0
529	200192	3.5	0
529	200192	3.6	0
529	200192	3.7	0
529	200192	3.8	0
529	200192	3.9	0
529	200192	4	0
529	200192	4.1	0
529	200192	4.2	0
529	200192	4.3	0
529	200192	4.4	0
529	200192	4.5	0
529	200192	4.6	0
529	200192	4.7	0
529	200192	4.8	0
529	200192	4.9	0
529	200192	5	0
529	200192	5.019880897652	0
530	200192	0.1	0
530	200192	0.2	0
530	200192	0.3	0
530	200192	0.4	0
530	200192	0.5	0
530	200192	0.6	0
530	200192	0.7	0
530	200192	0.8	0
530	200192	0.9	0
530	200192	1	0
530	200192	1.1	0
530	200192	1.2	0
530	200192	1.3	0
530	200192	1.4	0
530	200192	1.5	0
530	200192	1.6	0
530	200192	1.7	0
530	200192	1.8	0
530	200192	1.9	0
530	200192	2	0
530	200192	2.1	0
530	200192	2.2	0
530	200192	2.3	0
530	200192	2.4	0
530	200192	2.5	0
530	200192	2.6	0
530	200192	2.7	0
530	200192	2.8	0
530	200192	2.9	0
530	200192	3	0
530	200192	3.1	0
530	200192	3.2	0
530	200192	3.3	0
530	200192	3.4	0
530	200192	3.5	0
530	200192	3.6	0
530	200192	3.7	0
530	200192	3.8	0
530	200192	3.9	0
530	200192	4	0
530	200192	4.1	0
530	200192	4.2	0
530	200192	4.3	0
530	200192	4.4	0
530	200192	4.5	0
530	200192	4.6	0
530	200192	4.7	0
530	200192	4.8	0
530	200192	4.9	0
530	200192	5	0
530	200192	5.019880897652	0
531	200192	0.1	0
531	200192	0.2	0
531	200192	0.3	0
531	200192	0.4	0
531	200192	0.5	0
531	200192	0.6	0
531	200192	0.7	0
531	200192	0.8	0
531	200192	0.9	0
531	200192	1	0
531	200192	1.1	0
531	200192	1.2	0
531	200192	1.3	0
531	200192	1.4	0
531	200192	1.5	0
531	200192	1.6	0
531	200192	1.7	0
531	200192	1.8	0
531	200192	1.9	0
531	200192	2	0
531	200192	2.1	0
531	200192	2.2	0
531	200192	2.3	0
531	200192	2.4	0
531	200192	2.5	0
531	200192	2.6	0
531	200192	2.7	0
531	200192	2.8	0
531	200192	2.9	0
531	200192	3	0
531	200192	3.1	0
531	200192	3.2	0
531	200192	3.3	0
531	200192	3.4	0
531	200192	3.5	0
531	200192	3.6	0
531	200192	3.7	0
531	200192	3.8	0
531	200192	3.9	0
531	200192	4	0
531	200192	4.1	0
531	200192	4.2	0
531	200192	4.3	0
531	200192	4.4	0
531	200192	4.5	0
531	200192	4.6	0
531	200192	4.7	0
531	200192	4.8	0
531	200192	4.9	0
531	200192	5	0
531	200192	5.019880897652	0
532	200192	0.1	0
532	200192	0.2	0
532	200192	0.3	0
532	200192	0.4	0
532	200192	0.5	0
532	200192	0.6	0
532	200192	0.7	0
532	200192	0.8	0
532	200192	0.9	0
532	200192	1	0
532	200192	1.1	0
532	200192	1.2	0
532	200192	1.3	0
532	200192	1.4	0
532	200192	1.5	0
532	200192	1.6	0
532	200192	1.7	0
532	200192	1.8	0
532	200192	1.9	0
532	200192	2	0
532	200192	2.1	0
532	200192	2.2	0
532	200192	2.3	0
532	200192	2.4	0
532	200192	2.5	0
532	200192	2.6	0
532	200192	2.7	0
532	200192	2.8	0
532	200192	2.9	0
532	200192	3	0
532	200192	3.1	0
532	200192	3.2	0
532	200192	3.3	0
532	200192	3.4	0
532	200192	3.5	0
532	200192	3.6	0
532	200192	3.7	0
532	200192	3.8	0
532	200192	3.9	0
532	200192	4	0
532	200192	4.1	0
532	200192	4.2	0
532	200192	4.3	0
532	200192	4.4	0
532	200192	4.5	0
532	200192	4.6	0
532	200192	4.7	0
532	200192	4.8	0
532	200192	4.9	0
532	200192	5	0
532	200192	5.019880897652	0
533	200192	0.1	0
533	200192	0.2	0
533	200192	0.3	0
533	200192	0.4	0
533	200192	0.5	0
533	200192	0.6	0
533	200192	0.7	0
533	200192	0.8	0
533	200192	0.9	0
533	200192	1	0
533	200192	1.1	0
533	200192	1.2	0
533	200192	1.3	0
533	200192	1.4	0
533	200192	1.5	0
533	200192	1.6	0
533	200192	1.7	0
533	200192	1.8	0
533	200192	1.9	0
533	200192	2	0
533	200192	2.1	0
533	200192	2.2	0
533	200192	2.3	0
533	200192	2.4	0
533	200192	2.5	0
533	200192	2.6	0
533	200192	2.7	0
533	200192	2.8	0
533	200192	2.9	0
533	200192	3	0
533	200192	3.1	0
533	200192	3.2	0
533	200192	3.3	0
533	200192	3.4	0
533	200192	3.5	0
533	200192	3.6	0
533	200192	3.7	0
533	200192	3.8	0
533	200192	3.9	0
533	200192	4	0
533	200192	4.1	0
533	200192	4.2	0
533	200192	4.3	0
533	200192	4.4	0
533	200192	4.5	0
533	200192	4.6	0
533	200192	4.7	0
533	200192	4.8	0
533	200192	4.9	0
533	200192	5	0
533	200192	5.019880897652	0

