version 2
run Completa-0-20200527-18:46:34-4615
attr configname Completa
attr datetime 20200527-18:46:34
attr experiment Completa
attr inifile omnetpp.ini
attr iterationvars ""
attr iterationvarsf ""
attr measurement ""
attr network Network
attr processid 4615
attr repetition 0
attr replication #0
attr resultdir results
attr runnumber 0
attr seedset 0
param **.num_tx 11
param **.num_frw 8
param **.rx.mobility.initialZ 0m
param **.frw[*].mobility.initialZ 0m
param **.tx[*].mobility.initialZ 0m
param **.rx.mobility.initialX 470m
param **.rx.mobility.initialY 200m
param **.frw[0].mobility.initialX 450m
param **.frw[0].mobility.initialY 200m
param **.frw[1].mobility.initialX 450m
param **.frw[1].mobility.initialY 300m
param **.frw[2].mobility.initialX 550m
param **.frw[2].mobility.initialY 200m
param **.frw[3].mobility.initialX 550m
param **.frw[3].mobility.initialY 300m
param **.frw[4].mobility.initialX 380m
param **.frw[4].mobility.initialY 130m
param **.frw[5].mobility.initialX 610m
param **.frw[5].mobility.initialY 130m
param **.frw[6].mobility.initialX 610m
param **.frw[6].mobility.initialY 360m
param **.frw[7].mobility.initialX 380m
param **.frw[7].mobility.initialY 360m
param **.rx.mobility.typename "\"StationaryMobility\""
param **.rx.mobility.initFromDisplayString false
param **.frw[*].mobility.typename "\"StationaryMobility\""
param **.frw[*].mobility.initFromDisplayString false
param **.tx[*].mobility.typename "\"MassMobility\""
param **.tx[*].mobility.initFromDisplayString false
param **.tx[*].mobility.changeInterval "truncnormal(2s, 0.5s)"
param **.tx[*].mobility.angleDelta "normal(0deg, 30deg)"
param **.tx[*].mobility.speed "truncnormal(20mps, 8mps)"
param **.tx[*].mobility.updateInterval 100ms
param **.tx[6].generic.nextHop.nextHopConfig "\"frw[1].wlan[0]\""
param **.tx[3].generic.nextHop.nextHopConfig "\"frw[4].wlan[0]\""
param **.tx[7].generic.nextHop.nextHopConfig "\"frw[4].wlan[0]\""
param **.tx[8].generic.nextHop.nextHopConfig "\"frw[4].wlan[0]\""
param **.tx[4].generic.nextHop.nextHopConfig "\"frw[5].wlan[0]\""
param **.tx[9].generic.nextHop.nextHopConfig "\"frw[5].wlan[0]\""
param **.tx[10].generic.nextHop.nextHopConfig "\"frw[6].wlan[0]\""
param **.tx[0].generic.nextHop.nextHopConfig "\"frw[7].wlan[0]\""
param **.tx[2].generic.nextHop.nextHopConfig "\"frw[7].wlan[0]\""
param **.tx[1].generic.nextHop.nextHopConfig "\"frw[7].wlan[0]\""
param **.tx[5].generic.nextHop.nextHopConfig "\"frw[7].wlan[0]\""
param **.frw[0..3].generic.nextHop.nextHopConfig "\"rx.wlan[0]\""
param **.frw[4].generic.nextHop.nextHopConfig "\"frw[0].wlan[0]\""
param **.frw[5].generic.nextHop.nextHopConfig "\"frw[2].wlan[0]\""
param **.frw[6].generic.nextHop.nextHopConfig "\"frw[3].wlan[0]\""
param **.frw[7].generic.nextHop.nextHopConfig "\"frw[4].wlan[0]\""
param **.rx.generic.nextHop.nextHopConfig "\"null\""
param **.constraintAreaMaxX 700m
param **.constraintAreaMaxY 700m
param **.constraintAreaMaxZ 0m
param **.constraintAreaMinX 0m
param **.constraintAreaMinY 0m
param **.constraintAreaMinZ 0m
param **.radioMedium.pathLoss.typename "\"LogNormalShadowing\""
param **.radioMedium.pathLoss.alpha 3
param **.radioMedium.pathLoss.sigma 7
param **.numApps 1
param **.rx.app[0].typename "\"UdpSink\""
param **.rx.app[0].localPort 2345
param **.frw[*].app[0].typename "\"UdpSink\""
param **.frw[*].app[0].localPort 2345
param **.tx[*].app[0].typename "\"UdpBasicApp\""
param **.tx[*].app[0].destPort 2345
param **.tx[*].app[0].destAddresses "\"rx\""
param **.tx[*].app[0].messageLength 100B
param **.tx[*].app[0].startTime "uniform(0s, 10ms)"
param **.tx[*].app[0].sendInterval 100ms
param **.tx[*].app[0].packetName "\"Data\""
param **.networkConfiguratorModule "\"networkConfigurator\""
param **.networkConfigurator.config "xmldoc(\"scenario.xml\")"
param **.tx[*].hasIpv4 false
param **.tx[*].hasIpv6 false
param **.tx[*].hasGn true
param **.tx[*].generic.typename "\"NextHopNetworkLayer\""
param **.tx[*].generic.nextHop.hopLimit 4
param **.frw[*].hasIpv4 false
param **.frw[*].hasIpv6 false
param **.frw[*].hasGn true
param **.frw[*].generic.typename "\"NextHopNetworkLayer\""
param **.frw[*].generic.nextHop.hopLimit 4
param **.rx.hasIpv4 false
param **.rx.hasIpv6 false
param **.rx.hasGn true
param **.rx.generic.typename "\"NextHopNetworkLayer\""
param **.networkConfigurator.typename "\"NextHopNetworkConfigurator\""
param *.tx[*].wlan[2].radio.displayCommunicationRange true
param *.visualizer.sceneVisualizer.descriptionFigure "\"title\""
param *.visualizer.mediumVisualizer.displaySignals true
param *.visualizer.physicalLinkVisualizer.displayLinks true
param *.tx[*].wlan[0].radio.transmitter.communicationRange 500m
param *.tx[*].wlan[0].radio.displayCommunicationRange true

vector 0 Network.tx[0].wlan[0].radio radioMode:vector ETV
attr interpolationmode sample-hold
attr source radioModeChanged
attr title "Radio mode, vector"
vector 1 Network.tx[0].wlan[0].radio radioChannel:vector ETV
attr interpolationmode sample-hold
attr source radioChannelChanged
attr title "Radio channel, vector"
vector 2 Network.tx[1].wlan[0].radio radioMode:vector ETV
attr interpolationmode sample-hold
attr source radioModeChanged
attr title "Radio mode, vector"
vector 3 Network.tx[1].wlan[0].radio radioChannel:vector ETV
attr interpolationmode sample-hold
attr source radioChannelChanged
attr title "Radio channel, vector"
vector 4 Network.tx[2].wlan[0].radio radioMode:vector ETV
attr interpolationmode sample-hold
attr source radioModeChanged
attr title "Radio mode, vector"
vector 5 Network.tx[2].wlan[0].radio radioChannel:vector ETV
attr interpolationmode sample-hold
attr source radioChannelChanged
attr title "Radio channel, vector"
vector 6 Network.tx[3].wlan[0].radio radioMode:vector ETV
attr interpolationmode sample-hold
attr source radioModeChanged
attr title "Radio mode, vector"
vector 7 Network.tx[3].wlan[0].radio radioChannel:vector ETV
attr interpolationmode sample-hold
attr source radioChannelChanged
attr title "Radio channel, vector"
vector 8 Network.tx[4].wlan[0].radio radioMode:vector ETV
attr interpolationmode sample-hold
attr source radioModeChanged
attr title "Radio mode, vector"
vector 9 Network.tx[4].wlan[0].radio radioChannel:vector ETV
attr interpolationmode sample-hold
attr source radioChannelChanged
attr title "Radio channel, vector"
vector 10 Network.tx[5].wlan[0].radio radioMode:vector ETV
attr interpolationmode sample-hold
attr source radioModeChanged
attr title "Radio mode, vector"
vector 11 Network.tx[5].wlan[0].radio radioChannel:vector ETV
attr interpolationmode sample-hold
attr source radioChannelChanged
attr title "Radio channel, vector"
vector 12 Network.tx[6].wlan[0].radio radioMode:vector ETV
attr interpolationmode sample-hold
attr source radioModeChanged
attr title "Radio mode, vector"
vector 13 Network.tx[6].wlan[0].radio radioChannel:vector ETV
attr interpolationmode sample-hold
attr source radioChannelChanged
attr title "Radio channel, vector"
vector 14 Network.tx[7].wlan[0].radio radioMode:vector ETV
attr interpolationmode sample-hold
attr source radioModeChanged
attr title "Radio mode, vector"
vector 15 Network.tx[7].wlan[0].radio radioChannel:vector ETV
attr interpolationmode sample-hold
attr source radioChannelChanged
attr title "Radio channel, vector"
vector 16 Network.tx[8].wlan[0].radio radioMode:vector ETV
attr interpolationmode sample-hold
attr source radioModeChanged
attr title "Radio mode, vector"
vector 17 Network.tx[8].wlan[0].radio radioChannel:vector ETV
attr interpolationmode sample-hold
attr source radioChannelChanged
attr title "Radio channel, vector"
vector 18 Network.tx[9].wlan[0].radio radioMode:vector ETV
attr interpolationmode sample-hold
attr source radioModeChanged
attr title "Radio mode, vector"
vector 19 Network.tx[9].wlan[0].radio radioChannel:vector ETV
attr interpolationmode sample-hold
attr source radioChannelChanged
attr title "Radio channel, vector"
vector 20 Network.tx[10].wlan[0].radio radioMode:vector ETV
attr interpolationmode sample-hold
attr source radioModeChanged
attr title "Radio mode, vector"
vector 21 Network.tx[10].wlan[0].radio radioChannel:vector ETV
attr interpolationmode sample-hold
attr source radioChannelChanged
attr title "Radio channel, vector"
vector 22 Network.rx.wlan[0].radio radioMode:vector ETV
attr interpolationmode sample-hold
attr source radioModeChanged
attr title "Radio mode, vector"
vector 23 Network.rx.wlan[0].radio radioChannel:vector ETV
attr interpolationmode sample-hold
attr source radioChannelChanged
attr title "Radio channel, vector"
vector 24 Network.frw[0].wlan[0].radio radioMode:vector ETV
attr interpolationmode sample-hold
attr source radioModeChanged
attr title "Radio mode, vector"
vector 25 Network.frw[0].wlan[0].radio radioChannel:vector ETV
attr interpolationmode sample-hold
attr source radioChannelChanged
attr title "Radio channel, vector"
vector 26 Network.frw[1].wlan[0].radio radioMode:vector ETV
attr interpolationmode sample-hold
attr source radioModeChanged
attr title "Radio mode, vector"
vector 27 Network.frw[1].wlan[0].radio radioChannel:vector ETV
attr interpolationmode sample-hold
attr source radioChannelChanged
attr title "Radio channel, vector"
vector 28 Network.frw[2].wlan[0].radio radioMode:vector ETV
attr interpolationmode sample-hold
attr source radioModeChanged
attr title "Radio mode, vector"
vector 29 Network.frw[2].wlan[0].radio radioChannel:vector ETV
attr interpolationmode sample-hold
attr source radioChannelChanged
attr title "Radio channel, vector"
vector 30 Network.frw[3].wlan[0].radio radioMode:vector ETV
attr interpolationmode sample-hold
attr source radioModeChanged
attr title "Radio mode, vector"
vector 31 Network.frw[3].wlan[0].radio radioChannel:vector ETV
attr interpolationmode sample-hold
attr source radioChannelChanged
attr title "Radio channel, vector"
vector 32 Network.frw[4].wlan[0].radio radioMode:vector ETV
attr interpolationmode sample-hold
attr source radioModeChanged
attr title "Radio mode, vector"
vector 33 Network.frw[4].wlan[0].radio radioChannel:vector ETV
attr interpolationmode sample-hold
attr source radioChannelChanged
attr title "Radio channel, vector"
vector 34 Network.frw[5].wlan[0].radio radioMode:vector ETV
attr interpolationmode sample-hold
attr source radioModeChanged
attr title "Radio mode, vector"
vector 35 Network.frw[5].wlan[0].radio radioChannel:vector ETV
attr interpolationmode sample-hold
attr source radioChannelChanged
attr title "Radio channel, vector"
vector 36 Network.frw[6].wlan[0].radio radioMode:vector ETV
attr interpolationmode sample-hold
attr source radioModeChanged
attr title "Radio mode, vector"
vector 37 Network.frw[6].wlan[0].radio radioChannel:vector ETV
attr interpolationmode sample-hold
attr source radioChannelChanged
attr title "Radio channel, vector"
vector 38 Network.frw[7].wlan[0].radio radioMode:vector ETV
attr interpolationmode sample-hold
attr source radioModeChanged
attr title "Radio mode, vector"
vector 39 Network.frw[7].wlan[0].radio radioChannel:vector ETV
attr interpolationmode sample-hold
attr source radioChannelChanged
attr title "Radio channel, vector"
vector 40 Network.tx[0].wlan[0].radio receptionState:vector ETV
attr interpolationmode sample-hold
attr source receptionStateChanged
attr title "Radio reception state, vector"
vector 41 Network.tx[1].wlan[0].radio receptionState:vector ETV
attr interpolationmode sample-hold
attr source receptionStateChanged
attr title "Radio reception state, vector"
vector 42 Network.tx[2].wlan[0].radio receptionState:vector ETV
attr interpolationmode sample-hold
attr source receptionStateChanged
attr title "Radio reception state, vector"
vector 43 Network.tx[3].wlan[0].radio receptionState:vector ETV
attr interpolationmode sample-hold
attr source receptionStateChanged
attr title "Radio reception state, vector"
vector 44 Network.tx[4].wlan[0].radio receptionState:vector ETV
attr interpolationmode sample-hold
attr source receptionStateChanged
attr title "Radio reception state, vector"
vector 45 Network.tx[5].wlan[0].radio receptionState:vector ETV
attr interpolationmode sample-hold
attr source receptionStateChanged
attr title "Radio reception state, vector"
vector 46 Network.tx[6].wlan[0].radio receptionState:vector ETV
attr interpolationmode sample-hold
attr source receptionStateChanged
attr title "Radio reception state, vector"
vector 47 Network.tx[7].wlan[0].radio receptionState:vector ETV
attr interpolationmode sample-hold
attr source receptionStateChanged
attr title "Radio reception state, vector"
vector 48 Network.tx[8].wlan[0].radio receptionState:vector ETV
attr interpolationmode sample-hold
attr source receptionStateChanged
attr title "Radio reception state, vector"
vector 49 Network.tx[9].wlan[0].radio receptionState:vector ETV
attr interpolationmode sample-hold
attr source receptionStateChanged
attr title "Radio reception state, vector"
vector 50 Network.tx[10].wlan[0].radio receptionState:vector ETV
attr interpolationmode sample-hold
attr source receptionStateChanged
attr title "Radio reception state, vector"
vector 51 Network.rx.wlan[0].radio receptionState:vector ETV
attr interpolationmode sample-hold
attr source receptionStateChanged
attr title "Radio reception state, vector"
vector 52 Network.frw[0].wlan[0].radio receptionState:vector ETV
attr interpolationmode sample-hold
attr source receptionStateChanged
attr title "Radio reception state, vector"
vector 53 Network.frw[1].wlan[0].radio receptionState:vector ETV
attr interpolationmode sample-hold
attr source receptionStateChanged
attr title "Radio reception state, vector"
vector 54 Network.frw[2].wlan[0].radio receptionState:vector ETV
attr interpolationmode sample-hold
attr source receptionStateChanged
attr title "Radio reception state, vector"
vector 55 Network.frw[3].wlan[0].radio receptionState:vector ETV
attr interpolationmode sample-hold
attr source receptionStateChanged
attr title "Radio reception state, vector"
vector 56 Network.frw[4].wlan[0].radio receptionState:vector ETV
attr interpolationmode sample-hold
attr source receptionStateChanged
attr title "Radio reception state, vector"
vector 57 Network.frw[5].wlan[0].radio receptionState:vector ETV
attr interpolationmode sample-hold
attr source receptionStateChanged
attr title "Radio reception state, vector"
vector 58 Network.frw[6].wlan[0].radio receptionState:vector ETV
attr interpolationmode sample-hold
attr source receptionStateChanged
attr title "Radio reception state, vector"
vector 59 Network.frw[7].wlan[0].radio receptionState:vector ETV
attr interpolationmode sample-hold
attr source receptionStateChanged
attr title "Radio reception state, vector"
vector 60 Network.tx[0].wlan[0].mac.dcf.recoveryProcedure contentionWindowChanged:vector ETV
attr interpolationmode sample-hold
attr title "contention window, vector"
vector 61 Network.tx[1].wlan[0].mac.dcf.recoveryProcedure contentionWindowChanged:vector ETV
attr interpolationmode sample-hold
attr title "contention window, vector"
vector 62 Network.tx[2].wlan[0].mac.dcf.recoveryProcedure contentionWindowChanged:vector ETV
attr interpolationmode sample-hold
attr title "contention window, vector"
vector 63 Network.tx[3].wlan[0].mac.dcf.recoveryProcedure contentionWindowChanged:vector ETV
attr interpolationmode sample-hold
attr title "contention window, vector"
vector 64 Network.tx[4].wlan[0].mac.dcf.recoveryProcedure contentionWindowChanged:vector ETV
attr interpolationmode sample-hold
attr title "contention window, vector"
vector 65 Network.tx[5].wlan[0].mac.dcf.recoveryProcedure contentionWindowChanged:vector ETV
attr interpolationmode sample-hold
attr title "contention window, vector"
vector 66 Network.tx[6].wlan[0].mac.dcf.recoveryProcedure contentionWindowChanged:vector ETV
attr interpolationmode sample-hold
attr title "contention window, vector"
vector 67 Network.tx[7].wlan[0].mac.dcf.recoveryProcedure contentionWindowChanged:vector ETV
attr interpolationmode sample-hold
attr title "contention window, vector"
vector 68 Network.tx[8].wlan[0].mac.dcf.recoveryProcedure contentionWindowChanged:vector ETV
attr interpolationmode sample-hold
attr title "contention window, vector"
vector 69 Network.tx[9].wlan[0].mac.dcf.recoveryProcedure contentionWindowChanged:vector ETV
attr interpolationmode sample-hold
attr title "contention window, vector"
vector 70 Network.tx[10].wlan[0].mac.dcf.recoveryProcedure contentionWindowChanged:vector ETV
attr interpolationmode sample-hold
attr title "contention window, vector"
vector 71 Network.rx.wlan[0].mac.dcf.recoveryProcedure contentionWindowChanged:vector ETV
attr interpolationmode sample-hold
attr title "contention window, vector"
vector 72 Network.frw[0].wlan[0].mac.dcf.recoveryProcedure contentionWindowChanged:vector ETV
attr interpolationmode sample-hold
attr title "contention window, vector"
vector 73 Network.frw[1].wlan[0].mac.dcf.recoveryProcedure contentionWindowChanged:vector ETV
attr interpolationmode sample-hold
attr title "contention window, vector"
vector 74 Network.frw[2].wlan[0].mac.dcf.recoveryProcedure contentionWindowChanged:vector ETV
attr interpolationmode sample-hold
attr title "contention window, vector"
vector 75 Network.frw[3].wlan[0].mac.dcf.recoveryProcedure contentionWindowChanged:vector ETV
attr interpolationmode sample-hold
attr title "contention window, vector"
vector 76 Network.frw[4].wlan[0].mac.dcf.recoveryProcedure contentionWindowChanged:vector ETV
attr interpolationmode sample-hold
attr title "contention window, vector"
vector 77 Network.frw[5].wlan[0].mac.dcf.recoveryProcedure contentionWindowChanged:vector ETV
attr interpolationmode sample-hold
attr title "contention window, vector"
vector 78 Network.frw[6].wlan[0].mac.dcf.recoveryProcedure contentionWindowChanged:vector ETV
attr interpolationmode sample-hold
attr title "contention window, vector"
vector 79 Network.frw[7].wlan[0].mac.dcf.recoveryProcedure contentionWindowChanged:vector ETV
attr interpolationmode sample-hold
attr title "contention window, vector"
vector 80 Network.tx[3].app[0] packetSent:vector(packetBytes) ETV
attr interpolationmode none
attr source packetSent
attr title "packets sent, vector(packetBytes)"
vector 81 Network.tx[3].udp packetSent:vector(packetBytes) ETV
attr interpolationmode none
attr source packetSent
attr title "packets sent, vector(packetBytes)"
vector 82 Network.tx[3].wlan[0].mac packetReceivedFromUpper:vector(packetBytes) ETV
attr interpolationmode none
attr title "packets received from upper layer, vector(packetBytes)"
vector 83 Network.tx[3].wlan[0].mac.dcf.channelAccess.pendingQueue packetPushed:vector(packetBytes) ETV
attr interpolationmode none
attr title "packet pushed, vector(packetBytes)"
vector 84 Network.tx[3].wlan[0].mac.dcf.channelAccess.pendingQueue queueLength:vector ETV
attr interpolationmode sample-hold
attr source "count(packetPushed) - count(packetPopped) - count(packetRemoved) - count(packetDropped)"
attr title "queue length, vector"
vector 85 Network.tx[3].wlan[0].mac.dcf.channelAccess.contention backoffPeriodGenerated:vector ETV
attr interpolationmode none
attr title "backoff periods, vector"
vector 86 Network.tx[3].wlan[0].mac.dcf.channelAccess.contention backoffActive:vector ETV
attr interpolationmode sample-hold
attr source count(backoffStarted)-count(backoffStopped)
attr title "backoff active, vector"
vector 87 Network.tx[3].wlan[0].mac.dcf.channelAccess.pendingQueue packetPopped:vector(packetBytes) ETV
attr interpolationmode none
attr title "packet popped, vector(packetBytes)"
vector 88 Network.tx[3].wlan[0].mac.dcf.channelAccess.pendingQueue queueingTime:vector ETV
attr interpolationmode none
attr source queueingTime(packetPopped)
attr title "queueing times, vector"
attr unit s
vector 89 Network.tx[3].wlan[0].mac.dcf.channelAccess.inProgressFrames queueLength:vector ETV
attr interpolationmode sample-hold
attr source "count(packetEnqueued) - count(packetDequeued)"
attr title "queue length, vector"
vector 90 Network.tx[3].wlan[0].mac.dcf datarateSelected:vector ETV
attr interpolationmode none
attr title "datarates selected, vector"
vector 91 Network.tx[3].wlan[0].mac packetSentToLower:vector(packetBytes) ETV
attr interpolationmode none
attr title "packets sent to lower layer, vector(packetBytes)"
vector 92 Network.tx[3].wlan[0].mac.dcf frameSequenceActive:vector ETV
attr interpolationmode sample-hold
attr source count(frameSequenceStarted)-count(frameSequenceFinished)
attr title "frame sequence active, vector"
vector 93 Network.tx[3].wlan[0].radio transmissionState:vector ETV
attr interpolationmode sample-hold
attr source transmissionStateChanged
attr title "Radio transmission state, vector"
vector 94 Network.tx[3].wlan[0].mac.dcf packetSentToPeer:vector(packetBytes) ETV
attr interpolationmode none
attr title "packets sent, vector(packetBytes)"
vector 95 Network.tx[3].wlan[0].mac.dcf packetSentToPeerUnicast:vector(packetBytes) ETV
attr interpolationmode none
attr source ieee80211Unicast(packetSentToPeer)
attr title "packets sent: unicast, vector(packetBytes)"
vector 96 Network.tx[3].wlan[0].mac.dcf packetSentToPeerWithoutRetry:vector(packetBytes) ETV
attr interpolationmode none
attr source ieee80211NotRetry(packetSentToPeer)
attr title "packets sent: without retry, vector(packetBytes)"
vector 97 Network.tx[3].wlan[0].mac.rx nav:vector ETV
attr interpolationmode linear
attr source navChanged
attr title "network allocation vector, vector"
vector 98 Network.frw[4].wlan[0].mac packetReceivedFromLower:vector(packetBytes) ETV
attr interpolationmode none
attr title "packets received from lower layer, vector(packetBytes)"
vector 99 Network.frw[4].wlan[0].mac.dcf packetReceivedFromPeer:vector(packetBytes) ETV
attr interpolationmode none
attr title "packets received, vector(packetBytes)"
vector 100 Network.frw[4].wlan[0].mac.dcf packetReceivedFromPeerUnicast:vector(packetBytes) ETV
attr interpolationmode none
attr source ieee80211Unicast(packetReceivedFromPeer)
attr title "packets received: unicast, vector(packetBytes)"
vector 101 Network.frw[4].wlan[0].mac.dcf packetReceivedFromPeerWithoutRetry:vector(packetBytes) ETV
attr interpolationmode none
attr source ieee80211NotRetry(packetReceivedFromPeer)
attr title "packets received: without retry, vector(packetBytes)"
vector 102 Network.frw[4].wlan[0].mac.dcf datarateSelected:vector ETV
attr interpolationmode none
attr title "datarates selected, vector"
vector 103 Network.frw[4].wlan[0].mac packetSentToUpper:vector(packetBytes) ETV
attr interpolationmode none
attr title "packets sent to upper layer, vector(packetBytes)"
vector 104 Network.frw[4].wlan[0].mac packetReceivedFromUpper:vector(packetBytes) ETV
attr interpolationmode none
attr title "packets received from upper layer, vector(packetBytes)"
vector 105 Network.frw[4].wlan[0].mac.dcf.channelAccess.pendingQueue packetPushed:vector(packetBytes) ETV
attr interpolationmode none
attr title "packet pushed, vector(packetBytes)"
vector 106 Network.frw[4].wlan[0].mac.dcf.channelAccess.pendingQueue queueLength:vector ETV
attr interpolationmode sample-hold
attr source "count(packetPushed) - count(packetPopped) - count(packetRemoved) - count(packetDropped)"
attr title "queue length, vector"
vector 107 Network.frw[4].wlan[0].mac.dcf.channelAccess.contention backoffPeriodGenerated:vector ETV
attr interpolationmode none
attr title "backoff periods, vector"
vector 108 Network.frw[4].wlan[0].mac.dcf.channelAccess.contention backoffActive:vector ETV
attr interpolationmode sample-hold
attr source count(backoffStarted)-count(backoffStopped)
attr title "backoff active, vector"
vector 109 Network.tx[6].wlan[0].mac packetReceivedFromLower:vector(packetBytes) ETV
attr interpolationmode none
attr title "packets received from lower layer, vector(packetBytes)"
vector 110 Network.tx[6].wlan[0].mac.rx nav:vector ETV
attr interpolationmode linear
attr source navChanged
attr title "network allocation vector, vector"
vector 111 Network.tx[6].wlan[0].mac.dcf packetDrop:vector(packetBytes) ETV
attr interpolationmode none
attr source packetDropped
attr title "packet drops, vector(packetBytes)"
vector 112 Network.tx[6].wlan[0].mac.dcf packetDropNotAddressedToUs:vector(packetBytes) ETV
attr interpolationmode none
attr source packetDropReasonIsNotAddressedToUs(packetDropped)
attr title "packet drops: not addressed to us, vector(packetBytes)"
vector 113 Network.tx[6].wlan[0].mac packetDrop:vector(packetBytes) ETV
attr interpolationmode none
attr source packetDropped
attr title "packet drops, vector(packetBytes)"
vector 114 Network.tx[6].wlan[0].mac packetDropNotAddressedToUs:vector(packetBytes) ETV
attr interpolationmode none
attr source packetDropReasonIsNotAddressedToUs(packetDropped)
attr title "packet drops: not addressed to us, vector(packetBytes)"
vector 115 Network.frw[0].wlan[0].mac packetReceivedFromLower:vector(packetBytes) ETV
attr interpolationmode none
attr title "packets received from lower layer, vector(packetBytes)"
vector 116 Network.frw[0].wlan[0].mac.rx nav:vector ETV
attr interpolationmode linear
attr source navChanged
attr title "network allocation vector, vector"
vector 117 Network.frw[0].wlan[0].mac.dcf packetDrop:vector(packetBytes) ETV
attr interpolationmode none
attr source packetDropped
attr title "packet drops, vector(packetBytes)"
vector 118 Network.frw[0].wlan[0].mac.dcf packetDropNotAddressedToUs:vector(packetBytes) ETV
attr interpolationmode none
attr source packetDropReasonIsNotAddressedToUs(packetDropped)
attr title "packet drops: not addressed to us, vector(packetBytes)"
vector 119 Network.frw[0].wlan[0].mac packetDrop:vector(packetBytes) ETV
attr interpolationmode none
attr source packetDropped
attr title "packet drops, vector(packetBytes)"
vector 120 Network.frw[0].wlan[0].mac packetDropNotAddressedToUs:vector(packetBytes) ETV
attr interpolationmode none
attr source packetDropReasonIsNotAddressedToUs(packetDropped)
attr title "packet drops: not addressed to us, vector(packetBytes)"
vector 121 Network.frw[4].wlan[0].mac packetSentToLower:vector(packetBytes) ETV
attr interpolationmode none
attr title "packets sent to lower layer, vector(packetBytes)"
vector 122 Network.frw[4].wlan[0].radio transmissionState:vector ETV
attr interpolationmode sample-hold
attr source transmissionStateChanged
attr title "Radio transmission state, vector"
vector 123 Network.frw[4].wlan[0].mac.dcf packetSentToPeer:vector(packetBytes) ETV
attr interpolationmode none
attr title "packets sent, vector(packetBytes)"
vector 124 Network.frw[4].wlan[0].mac.dcf packetSentToPeerUnicast:vector(packetBytes) ETV
attr interpolationmode none
attr source ieee80211Unicast(packetSentToPeer)
attr title "packets sent: unicast, vector(packetBytes)"
vector 125 Network.frw[4].wlan[0].mac.dcf packetSentToPeerWithoutRetry:vector(packetBytes) ETV
attr interpolationmode none
attr source ieee80211NotRetry(packetSentToPeer)
attr title "packets sent: without retry, vector(packetBytes)"
vector 126 Network.frw[1].wlan[0].mac packetReceivedFromLower:vector(packetBytes) ETV
attr interpolationmode none
attr title "packets received from lower layer, vector(packetBytes)"
vector 127 Network.frw[1].wlan[0].mac.dcf packetDrop:vector(packetBytes) ETV
attr interpolationmode none
attr source packetDropped
attr title "packet drops, vector(packetBytes)"
vector 128 Network.frw[1].wlan[0].mac.dcf packetDropNotAddressedToUs:vector(packetBytes) ETV
attr interpolationmode none
attr source packetDropReasonIsNotAddressedToUs(packetDropped)
attr title "packet drops: not addressed to us, vector(packetBytes)"
vector 129 Network.frw[1].wlan[0].mac packetDrop:vector(packetBytes) ETV
attr interpolationmode none
attr source packetDropped
attr title "packet drops, vector(packetBytes)"
vector 130 Network.frw[1].wlan[0].mac packetDropNotAddressedToUs:vector(packetBytes) ETV
attr interpolationmode none
attr source packetDropReasonIsNotAddressedToUs(packetDropped)
attr title "packet drops: not addressed to us, vector(packetBytes)"
vector 131 Network.frw[4].wlan[0].mac.dcf.channelAccess.pendingQueue packetPopped:vector(packetBytes) ETV
attr interpolationmode none
attr title "packet popped, vector(packetBytes)"
vector 132 Network.frw[4].wlan[0].mac.dcf.channelAccess.pendingQueue queueingTime:vector ETV
attr interpolationmode none
attr source queueingTime(packetPopped)
attr title "queueing times, vector"
attr unit s
vector 133 Network.frw[4].wlan[0].mac.dcf.channelAccess.inProgressFrames queueLength:vector ETV
attr interpolationmode sample-hold
attr source "count(packetEnqueued) - count(packetDequeued)"
attr title "queue length, vector"
vector 134 Network.frw[4].wlan[0].mac.dcf frameSequenceActive:vector ETV
attr interpolationmode sample-hold
attr source count(frameSequenceStarted)-count(frameSequenceFinished)
attr title "frame sequence active, vector"
vector 135 Network.frw[4].wlan[0].mac.rx nav:vector ETV
attr interpolationmode linear
attr source navChanged
attr title "network allocation vector, vector"
vector 136 Network.frw[0].wlan[0].mac.dcf packetReceivedFromPeer:vector(packetBytes) ETV
attr interpolationmode none
attr title "packets received, vector(packetBytes)"
vector 137 Network.frw[0].wlan[0].mac.dcf packetReceivedFromPeerUnicast:vector(packetBytes) ETV
attr interpolationmode none
attr source ieee80211Unicast(packetReceivedFromPeer)
attr title "packets received: unicast, vector(packetBytes)"
vector 138 Network.frw[0].wlan[0].mac.dcf packetReceivedFromPeerWithoutRetry:vector(packetBytes) ETV
attr interpolationmode none
attr source ieee80211NotRetry(packetReceivedFromPeer)
attr title "packets received: without retry, vector(packetBytes)"
vector 139 Network.frw[0].wlan[0].mac.dcf datarateSelected:vector ETV
attr interpolationmode none
attr title "datarates selected, vector"
vector 140 Network.frw[0].wlan[0].mac packetSentToUpper:vector(packetBytes) ETV
attr interpolationmode none
attr title "packets sent to upper layer, vector(packetBytes)"
vector 141 Network.frw[0].wlan[0].mac packetReceivedFromUpper:vector(packetBytes) ETV
attr interpolationmode none
attr title "packets received from upper layer, vector(packetBytes)"
vector 142 Network.frw[0].wlan[0].mac.dcf.channelAccess.pendingQueue packetPushed:vector(packetBytes) ETV
attr interpolationmode none
attr title "packet pushed, vector(packetBytes)"
vector 143 Network.frw[0].wlan[0].mac.dcf.channelAccess.pendingQueue queueLength:vector ETV
attr interpolationmode sample-hold
attr source "count(packetPushed) - count(packetPopped) - count(packetRemoved) - count(packetDropped)"
attr title "queue length, vector"
vector 144 Network.frw[0].wlan[0].mac.dcf.channelAccess.contention backoffPeriodGenerated:vector ETV
attr interpolationmode none
attr title "backoff periods, vector"
vector 145 Network.frw[0].wlan[0].mac.dcf.channelAccess.contention backoffActive:vector ETV
attr interpolationmode sample-hold
attr source count(backoffStarted)-count(backoffStopped)
attr title "backoff active, vector"
vector 146 Network.tx[3].wlan[0].mac packetReceivedFromLower:vector(packetBytes) ETV
attr interpolationmode none
attr title "packets received from lower layer, vector(packetBytes)"
vector 147 Network.tx[3].wlan[0].mac.dcf packetDrop:vector(packetBytes) ETV
attr interpolationmode none
attr source packetDropped
attr title "packet drops, vector(packetBytes)"
vector 148 Network.tx[3].wlan[0].mac.dcf packetDropNotAddressedToUs:vector(packetBytes) ETV
attr interpolationmode none
attr source packetDropReasonIsNotAddressedToUs(packetDropped)
attr title "packet drops: not addressed to us, vector(packetBytes)"
vector 149 Network.tx[3].wlan[0].mac packetDrop:vector(packetBytes) ETV
attr interpolationmode none
attr source packetDropped
attr title "packet drops, vector(packetBytes)"
vector 150 Network.tx[3].wlan[0].mac packetDropNotAddressedToUs:vector(packetBytes) ETV
attr interpolationmode none
attr source packetDropReasonIsNotAddressedToUs(packetDropped)
attr title "packet drops: not addressed to us, vector(packetBytes)"
vector 151 Network.frw[7].wlan[0].mac packetReceivedFromLower:vector(packetBytes) ETV
attr interpolationmode none
attr title "packets received from lower layer, vector(packetBytes)"
vector 152 Network.frw[7].wlan[0].mac.rx nav:vector ETV
attr interpolationmode linear
attr source navChanged
attr title "network allocation vector, vector"
vector 153 Network.frw[7].wlan[0].mac.dcf packetDrop:vector(packetBytes) ETV
attr interpolationmode none
attr source packetDropped
attr title "packet drops, vector(packetBytes)"
vector 154 Network.frw[7].wlan[0].mac.dcf packetDropNotAddressedToUs:vector(packetBytes) ETV
attr interpolationmode none
attr source packetDropReasonIsNotAddressedToUs(packetDropped)
attr title "packet drops: not addressed to us, vector(packetBytes)"
vector 155 Network.frw[7].wlan[0].mac packetDrop:vector(packetBytes) ETV
attr interpolationmode none
attr source packetDropped
attr title "packet drops, vector(packetBytes)"
vector 156 Network.frw[7].wlan[0].mac packetDropNotAddressedToUs:vector(packetBytes) ETV
attr interpolationmode none
attr source packetDropReasonIsNotAddressedToUs(packetDropped)
attr title "packet drops: not addressed to us, vector(packetBytes)"
vector 157 Network.frw[0].wlan[0].mac packetSentToLower:vector(packetBytes) ETV
attr interpolationmode none
attr title "packets sent to lower layer, vector(packetBytes)"
vector 158 Network.frw[0].wlan[0].radio transmissionState:vector ETV
attr interpolationmode sample-hold
attr source transmissionStateChanged
attr title "Radio transmission state, vector"
vector 159 Network.frw[0].wlan[0].mac.dcf packetSentToPeer:vector(packetBytes) ETV
attr interpolationmode none
attr title "packets sent, vector(packetBytes)"
vector 160 Network.frw[0].wlan[0].mac.dcf packetSentToPeerUnicast:vector(packetBytes) ETV
attr interpolationmode none
attr source ieee80211Unicast(packetSentToPeer)
attr title "packets sent: unicast, vector(packetBytes)"
vector 161 Network.frw[0].wlan[0].mac.dcf packetSentToPeerWithoutRetry:vector(packetBytes) ETV
attr interpolationmode none
attr source ieee80211NotRetry(packetSentToPeer)
attr title "packets sent: without retry, vector(packetBytes)"
vector 162 Network.rx.wlan[0].mac packetReceivedFromLower:vector(packetBytes) ETV
attr interpolationmode none
attr title "packets received from lower layer, vector(packetBytes)"
vector 163 Network.rx.wlan[0].mac.dcf packetDrop:vector(packetBytes) ETV
attr interpolationmode none
attr source packetDropped
attr title "packet drops, vector(packetBytes)"
vector 164 Network.rx.wlan[0].mac.dcf packetDropNotAddressedToUs:vector(packetBytes) ETV
attr interpolationmode none
attr source packetDropReasonIsNotAddressedToUs(packetDropped)
attr title "packet drops: not addressed to us, vector(packetBytes)"
vector 165 Network.rx.wlan[0].mac packetDrop:vector(packetBytes) ETV
attr interpolationmode none
attr source packetDropped
attr title "packet drops, vector(packetBytes)"
vector 166 Network.rx.wlan[0].mac packetDropNotAddressedToUs:vector(packetBytes) ETV
attr interpolationmode none
attr source packetDropReasonIsNotAddressedToUs(packetDropped)
attr title "packet drops: not addressed to us, vector(packetBytes)"
vector 167 Network.frw[4].wlan[0].mac.dcf.channelAccess.inProgressFrames queueingTime:vector ETV
attr interpolationmode none
attr source queueingTime(packetDequeued)
attr title "queueing times, vector"
vector 168 Network.frw[2].wlan[0].mac packetReceivedFromLower:vector(packetBytes) ETV
attr interpolationmode none
attr title "packets received from lower layer, vector(packetBytes)"
vector 169 Network.frw[2].wlan[0].mac.dcf packetDrop:vector(packetBytes) ETV
attr interpolationmode none
attr source packetDropped
attr title "packet drops, vector(packetBytes)"
vector 170 Network.frw[2].wlan[0].mac.dcf packetDropNotAddressedToUs:vector(packetBytes) ETV
attr interpolationmode none
attr source packetDropReasonIsNotAddressedToUs(packetDropped)
attr title "packet drops: not addressed to us, vector(packetBytes)"
vector 171 Network.frw[2].wlan[0].mac packetDrop:vector(packetBytes) ETV
attr interpolationmode none
attr source packetDropped
attr title "packet drops, vector(packetBytes)"
vector 172 Network.frw[2].wlan[0].mac packetDropNotAddressedToUs:vector(packetBytes) ETV
attr interpolationmode none
attr source packetDropReasonIsNotAddressedToUs(packetDropped)
attr title "packet drops: not addressed to us, vector(packetBytes)"
vector 173 Network.frw[3].wlan[0].mac packetReceivedFromLower:vector(packetBytes) ETV
attr interpolationmode none
attr title "packets received from lower layer, vector(packetBytes)"
vector 174 Network.frw[3].wlan[0].mac.dcf packetDrop:vector(packetBytes) ETV
attr interpolationmode none
attr source packetDropped
attr title "packet drops, vector(packetBytes)"
vector 175 Network.frw[3].wlan[0].mac.dcf packetDropNotAddressedToUs:vector(packetBytes) ETV
attr interpolationmode none
attr source packetDropReasonIsNotAddressedToUs(packetDropped)
attr title "packet drops: not addressed to us, vector(packetBytes)"
vector 176 Network.frw[3].wlan[0].mac packetDrop:vector(packetBytes) ETV
attr interpolationmode none
attr source packetDropped
attr title "packet drops, vector(packetBytes)"
vector 177 Network.frw[3].wlan[0].mac packetDropNotAddressedToUs:vector(packetBytes) ETV
attr interpolationmode none
attr source packetDropReasonIsNotAddressedToUs(packetDropped)
attr title "packet drops: not addressed to us, vector(packetBytes)"
vector 178 Network.frw[0].wlan[0].mac.dcf.channelAccess.pendingQueue packetPopped:vector(packetBytes) ETV
attr interpolationmode none
attr title "packet popped, vector(packetBytes)"
vector 179 Network.frw[0].wlan[0].mac.dcf.channelAccess.pendingQueue queueingTime:vector ETV
attr interpolationmode none
attr source queueingTime(packetPopped)
attr title "queueing times, vector"
attr unit s
vector 180 Network.frw[0].wlan[0].mac.dcf.channelAccess.inProgressFrames queueLength:vector ETV
attr interpolationmode sample-hold
attr source "count(packetEnqueued) - count(packetDequeued)"
attr title "queue length, vector"
vector 181 Network.frw[0].wlan[0].mac.dcf frameSequenceActive:vector ETV
attr interpolationmode sample-hold
attr source count(frameSequenceStarted)-count(frameSequenceFinished)
attr title "frame sequence active, vector"
vector 182 Network.rx.wlan[0].mac.dcf packetReceivedFromPeer:vector(packetBytes) ETV
attr interpolationmode none
attr title "packets received, vector(packetBytes)"
vector 183 Network.rx.wlan[0].mac.dcf packetReceivedFromPeerUnicast:vector(packetBytes) ETV
attr interpolationmode none
attr source ieee80211Unicast(packetReceivedFromPeer)
attr title "packets received: unicast, vector(packetBytes)"
vector 184 Network.rx.wlan[0].mac.dcf packetReceivedFromPeerWithoutRetry:vector(packetBytes) ETV
attr interpolationmode none
attr source ieee80211NotRetry(packetReceivedFromPeer)
attr title "packets received: without retry, vector(packetBytes)"
vector 185 Network.rx.wlan[0].mac.dcf datarateSelected:vector ETV
attr interpolationmode none
attr title "datarates selected, vector"
vector 186 Network.rx.wlan[0].mac packetSentToUpper:vector(packetBytes) ETV
attr interpolationmode none
attr title "packets sent to upper layer, vector(packetBytes)"
vector 187 Network.rx.udp packetReceived:vector(packetBytes) ETV
attr interpolationmode none
attr source packetReceived
attr title "packets received, vector(packetBytes)"
vector 188 Network.rx.udp passedUpPk:vector(count) ETV
attr interpolationmode none
attr source packetSentToUpper
attr title "packets passed up, vector(count)"
vector 189 Network.rx.app[0] packetReceived:vector(packetBytes) ETV
attr interpolationmode none
attr source packetReceived
attr title "packets received, vector(packetBytes)"
vector 190 Network.rx.app[0] endToEndDelay:vector ETV
attr interpolationmode none
attr source dataAge(packetReceived)
attr title "end-to-end delay, vector"
attr unit s
vector 191 Network.rx.app[0] rcvdPkSeqNo:vector ETV
attr interpolationmode none
attr source appPkSeqNo(packetReceived)
attr title "received packet sequence number, vector"
vector 192 Network.frw[4].wlan[0].mac.dcf packetDrop:vector(packetBytes) ETV
attr interpolationmode none
attr source packetDropped
attr title "packet drops, vector(packetBytes)"
vector 193 Network.frw[4].wlan[0].mac.dcf packetDropNotAddressedToUs:vector(packetBytes) ETV
attr interpolationmode none
attr source packetDropReasonIsNotAddressedToUs(packetDropped)
attr title "packet drops: not addressed to us, vector(packetBytes)"
vector 194 Network.frw[4].wlan[0].mac packetDrop:vector(packetBytes) ETV
attr interpolationmode none
attr source packetDropped
attr title "packet drops, vector(packetBytes)"
vector 195 Network.frw[4].wlan[0].mac packetDropNotAddressedToUs:vector(packetBytes) ETV
attr interpolationmode none
attr source packetDropReasonIsNotAddressedToUs(packetDropped)
attr title "packet drops: not addressed to us, vector(packetBytes)"
vector 196 Network.frw[2].wlan[0].mac.rx nav:vector ETV
attr interpolationmode linear
attr source navChanged
attr title "network allocation vector, vector"
vector 197 Network.rx.wlan[0].mac packetSentToLower:vector(packetBytes) ETV
attr interpolationmode none
attr title "packets sent to lower layer, vector(packetBytes)"
vector 198 Network.rx.wlan[0].radio transmissionState:vector ETV
attr interpolationmode sample-hold
attr source transmissionStateChanged
attr title "Radio transmission state, vector"
vector 199 Network.rx.wlan[0].mac.dcf packetSentToPeer:vector(packetBytes) ETV
attr interpolationmode none
attr title "packets sent, vector(packetBytes)"
vector 200 Network.rx.wlan[0].mac.dcf packetSentToPeerUnicast:vector(packetBytes) ETV
attr interpolationmode none
attr source ieee80211Unicast(packetSentToPeer)
attr title "packets sent: unicast, vector(packetBytes)"
vector 201 Network.rx.wlan[0].mac.dcf packetSentToPeerWithoutRetry:vector(packetBytes) ETV
attr interpolationmode none
attr source ieee80211NotRetry(packetSentToPeer)
attr title "packets sent: without retry, vector(packetBytes)"
vector 202 Network.frw[0].wlan[0].mac.dcf.channelAccess.inProgressFrames queueingTime:vector ETV
attr interpolationmode none
attr source queueingTime(packetDequeued)
attr title "queueing times, vector"
vector 203 Network.tx[3].wlan[0].mac.dcf packetSentToPeerWithRetry:vector(packetBytes) ETV
attr interpolationmode none
attr source ieee80211Retry(packetSentToPeer)
attr title "packets sent: with retry, vector(packetBytes)"
vector 204 Network.rx.wlan[0].mac.rx nav:vector ETV
attr interpolationmode linear
attr source navChanged
attr title "network allocation vector, vector"
vector 205 Network.tx[2].app[0] packetSent:vector(packetBytes) ETV
attr interpolationmode none
attr source packetSent
attr title "packets sent, vector(packetBytes)"
vector 206 Network.tx[2].udp packetSent:vector(packetBytes) ETV
attr interpolationmode none
attr source packetSent
attr title "packets sent, vector(packetBytes)"
vector 207 Network.tx[2].wlan[0].mac packetReceivedFromUpper:vector(packetBytes) ETV
attr interpolationmode none
attr title "packets received from upper layer, vector(packetBytes)"
vector 208 Network.tx[2].wlan[0].mac.dcf.channelAccess.pendingQueue packetPushed:vector(packetBytes) ETV
attr interpolationmode none
attr title "packet pushed, vector(packetBytes)"
vector 209 Network.tx[2].wlan[0].mac.dcf.channelAccess.pendingQueue queueLength:vector ETV
attr interpolationmode sample-hold
attr source "count(packetPushed) - count(packetPopped) - count(packetRemoved) - count(packetDropped)"
attr title "queue length, vector"
vector 210 Network.tx[2].wlan[0].mac.dcf.channelAccess.contention backoffPeriodGenerated:vector ETV
attr interpolationmode none
attr title "backoff periods, vector"
vector 211 Network.tx[2].wlan[0].mac.dcf.channelAccess.contention backoffActive:vector ETV
attr interpolationmode sample-hold
attr source count(backoffStarted)-count(backoffStopped)
attr title "backoff active, vector"
vector 212 Network.tx[2].wlan[0].mac.dcf.channelAccess.pendingQueue packetPopped:vector(packetBytes) ETV
attr interpolationmode none
attr title "packet popped, vector(packetBytes)"
vector 213 Network.tx[2].wlan[0].mac.dcf.channelAccess.pendingQueue queueingTime:vector ETV
attr interpolationmode none
attr source queueingTime(packetPopped)
attr title "queueing times, vector"
attr unit s
vector 214 Network.tx[2].wlan[0].mac.dcf.channelAccess.inProgressFrames queueLength:vector ETV
attr interpolationmode sample-hold
attr source "count(packetEnqueued) - count(packetDequeued)"
attr title "queue length, vector"
vector 215 Network.tx[2].wlan[0].mac.dcf datarateSelected:vector ETV
attr interpolationmode none
attr title "datarates selected, vector"
vector 216 Network.tx[2].wlan[0].mac packetSentToLower:vector(packetBytes) ETV
attr interpolationmode none
attr title "packets sent to lower layer, vector(packetBytes)"
vector 217 Network.tx[2].wlan[0].mac.dcf frameSequenceActive:vector ETV
attr interpolationmode sample-hold
attr source count(frameSequenceStarted)-count(frameSequenceFinished)
attr title "frame sequence active, vector"
vector 218 Network.tx[2].wlan[0].radio transmissionState:vector ETV
attr interpolationmode sample-hold
attr source transmissionStateChanged
attr title "Radio transmission state, vector"
vector 219 Network.tx[2].wlan[0].mac.dcf packetSentToPeer:vector(packetBytes) ETV
attr interpolationmode none
attr title "packets sent, vector(packetBytes)"
vector 220 Network.tx[2].wlan[0].mac.dcf packetSentToPeerUnicast:vector(packetBytes) ETV
attr interpolationmode none
attr source ieee80211Unicast(packetSentToPeer)
attr title "packets sent: unicast, vector(packetBytes)"
vector 221 Network.tx[2].wlan[0].mac.dcf packetSentToPeerWithoutRetry:vector(packetBytes) ETV
attr interpolationmode none
attr source ieee80211NotRetry(packetSentToPeer)
attr title "packets sent: without retry, vector(packetBytes)"
vector 222 Network.tx[2].wlan[0].mac.rx nav:vector ETV
attr interpolationmode linear
attr source navChanged
attr title "network allocation vector, vector"
vector 223 Network.tx[0].wlan[0].mac packetReceivedFromLower:vector(packetBytes) ETV
attr interpolationmode none
attr title "packets received from lower layer, vector(packetBytes)"
vector 224 Network.tx[0].wlan[0].mac.rx nav:vector ETV
attr interpolationmode linear
attr source navChanged
attr title "network allocation vector, vector"
vector 225 Network.tx[0].wlan[0].mac.dcf packetDrop:vector(packetBytes) ETV
attr interpolationmode none
attr source packetDropped
attr title "packet drops, vector(packetBytes)"
vector 226 Network.tx[0].wlan[0].mac.dcf packetDropNotAddressedToUs:vector(packetBytes) ETV
attr interpolationmode none
attr source packetDropReasonIsNotAddressedToUs(packetDropped)
attr title "packet drops: not addressed to us, vector(packetBytes)"
vector 227 Network.tx[0].wlan[0].mac packetDrop:vector(packetBytes) ETV
attr interpolationmode none
attr source packetDropped
attr title "packet drops, vector(packetBytes)"
vector 228 Network.tx[0].wlan[0].mac packetDropNotAddressedToUs:vector(packetBytes) ETV
attr interpolationmode none
attr source packetDropReasonIsNotAddressedToUs(packetDropped)
attr title "packet drops: not addressed to us, vector(packetBytes)"
vector 229 Network.tx[2].wlan[0].mac.dcf packetSentToPeerWithRetry:vector(packetBytes) ETV
attr interpolationmode none
attr source ieee80211Retry(packetSentToPeer)
attr title "packets sent: with retry, vector(packetBytes)"
vector 230 Network.frw[7].wlan[0].mac.dcf packetReceivedFromPeer:vector(packetBytes) ETV
attr interpolationmode none
attr title "packets received, vector(packetBytes)"
vector 231 Network.frw[7].wlan[0].mac.dcf packetReceivedFromPeerUnicast:vector(packetBytes) ETV
attr interpolationmode none
attr source ieee80211Unicast(packetReceivedFromPeer)
attr title "packets received: unicast, vector(packetBytes)"
vector 232 Network.frw[7].wlan[0].mac.dcf packetReceivedFromPeerWithRetry:vector(packetBytes) ETV
attr interpolationmode none
attr source ieee80211Retry(packetReceivedFromPeer)
attr title "packets received: with retry, vector(packetBytes)"
vector 233 Network.frw[7].wlan[0].mac.dcf datarateSelected:vector ETV
attr interpolationmode none
attr title "datarates selected, vector"
vector 234 Network.frw[7].wlan[0].mac packetSentToUpper:vector(packetBytes) ETV
attr interpolationmode none
attr title "packets sent to upper layer, vector(packetBytes)"
vector 235 Network.frw[7].wlan[0].mac packetReceivedFromUpper:vector(packetBytes) ETV
attr interpolationmode none
attr title "packets received from upper layer, vector(packetBytes)"
vector 236 Network.frw[7].wlan[0].mac.dcf.channelAccess.pendingQueue packetPushed:vector(packetBytes) ETV
attr interpolationmode none
attr title "packet pushed, vector(packetBytes)"
vector 237 Network.frw[7].wlan[0].mac.dcf.channelAccess.pendingQueue queueLength:vector ETV
attr interpolationmode sample-hold
attr source "count(packetPushed) - count(packetPopped) - count(packetRemoved) - count(packetDropped)"
attr title "queue length, vector"
vector 238 Network.frw[7].wlan[0].mac.dcf.channelAccess.contention backoffPeriodGenerated:vector ETV
attr interpolationmode none
attr title "backoff periods, vector"
vector 239 Network.frw[7].wlan[0].mac.dcf.channelAccess.contention backoffActive:vector ETV
attr interpolationmode sample-hold
attr source count(backoffStarted)-count(backoffStopped)
attr title "backoff active, vector"
vector 240 Network.frw[7].wlan[0].mac packetSentToLower:vector(packetBytes) ETV
attr interpolationmode none
attr title "packets sent to lower layer, vector(packetBytes)"
vector 241 Network.frw[7].wlan[0].radio transmissionState:vector ETV
attr interpolationmode sample-hold
attr source transmissionStateChanged
attr title "Radio transmission state, vector"
vector 242 Network.frw[7].wlan[0].mac.dcf packetSentToPeer:vector(packetBytes) ETV
attr interpolationmode none
attr title "packets sent, vector(packetBytes)"
vector 243 Network.frw[7].wlan[0].mac.dcf packetSentToPeerUnicast:vector(packetBytes) ETV
attr interpolationmode none
attr source ieee80211Unicast(packetSentToPeer)
attr title "packets sent: unicast, vector(packetBytes)"
vector 244 Network.frw[7].wlan[0].mac.dcf packetSentToPeerWithoutRetry:vector(packetBytes) ETV
attr interpolationmode none
attr source ieee80211NotRetry(packetSentToPeer)
attr title "packets sent: without retry, vector(packetBytes)"
vector 245 Network.tx[4].app[0] packetSent:vector(packetBytes) ETV
attr interpolationmode none
attr source packetSent
attr title "packets sent, vector(packetBytes)"
vector 246 Network.tx[4].udp packetSent:vector(packetBytes) ETV
attr interpolationmode none
attr source packetSent
attr title "packets sent, vector(packetBytes)"
vector 247 Network.tx[4].wlan[0].mac packetReceivedFromUpper:vector(packetBytes) ETV
attr interpolationmode none
attr title "packets received from upper layer, vector(packetBytes)"
vector 248 Network.tx[4].wlan[0].mac.dcf.channelAccess.pendingQueue packetPushed:vector(packetBytes) ETV
attr interpolationmode none
attr title "packet pushed, vector(packetBytes)"
vector 249 Network.tx[4].wlan[0].mac.dcf.channelAccess.pendingQueue queueLength:vector ETV
attr interpolationmode sample-hold
attr source "count(packetPushed) - count(packetPopped) - count(packetRemoved) - count(packetDropped)"
attr title "queue length, vector"
vector 250 Network.tx[4].wlan[0].mac.dcf.channelAccess.contention backoffPeriodGenerated:vector ETV
attr interpolationmode none
attr title "backoff periods, vector"
vector 251 Network.tx[4].wlan[0].mac.dcf.channelAccess.contention backoffActive:vector ETV
attr interpolationmode sample-hold
attr source count(backoffStarted)-count(backoffStopped)
attr title "backoff active, vector"
vector 252 Network.tx[4].wlan[0].mac.dcf.channelAccess.pendingQueue packetPopped:vector(packetBytes) ETV
attr interpolationmode none
attr title "packet popped, vector(packetBytes)"
vector 253 Network.tx[4].wlan[0].mac.dcf.channelAccess.pendingQueue queueingTime:vector ETV
attr interpolationmode none
attr source queueingTime(packetPopped)
attr title "queueing times, vector"
attr unit s
vector 254 Network.tx[4].wlan[0].mac.dcf.channelAccess.inProgressFrames queueLength:vector ETV
attr interpolationmode sample-hold
attr source "count(packetEnqueued) - count(packetDequeued)"
attr title "queue length, vector"
vector 255 Network.tx[4].wlan[0].mac.dcf datarateSelected:vector ETV
attr interpolationmode none
attr title "datarates selected, vector"
vector 256 Network.tx[4].wlan[0].mac packetSentToLower:vector(packetBytes) ETV
attr interpolationmode none
attr title "packets sent to lower layer, vector(packetBytes)"
vector 257 Network.tx[4].wlan[0].mac.dcf frameSequenceActive:vector ETV
attr interpolationmode sample-hold
attr source count(frameSequenceStarted)-count(frameSequenceFinished)
attr title "frame sequence active, vector"
vector 258 Network.tx[4].wlan[0].radio transmissionState:vector ETV
attr interpolationmode sample-hold
attr source transmissionStateChanged
attr title "Radio transmission state, vector"
vector 259 Network.tx[5].app[0] packetSent:vector(packetBytes) ETV
attr interpolationmode none
attr source packetSent
attr title "packets sent, vector(packetBytes)"
vector 260 Network.tx[5].udp packetSent:vector(packetBytes) ETV
attr interpolationmode none
attr source packetSent
attr title "packets sent, vector(packetBytes)"
vector 261 Network.tx[5].wlan[0].mac packetReceivedFromUpper:vector(packetBytes) ETV
attr interpolationmode none
attr title "packets received from upper layer, vector(packetBytes)"
vector 262 Network.tx[5].wlan[0].mac.dcf.channelAccess.pendingQueue packetPushed:vector(packetBytes) ETV
attr interpolationmode none
attr title "packet pushed, vector(packetBytes)"
vector 263 Network.tx[5].wlan[0].mac.dcf.channelAccess.pendingQueue queueLength:vector ETV
attr interpolationmode sample-hold
attr source "count(packetPushed) - count(packetPopped) - count(packetRemoved) - count(packetDropped)"
attr title "queue length, vector"
vector 264 Network.tx[5].wlan[0].mac.dcf.channelAccess.contention backoffPeriodGenerated:vector ETV
attr interpolationmode none
attr title "backoff periods, vector"
vector 265 Network.tx[5].wlan[0].mac.dcf.channelAccess.contention backoffActive:vector ETV
attr interpolationmode sample-hold
attr source count(backoffStarted)-count(backoffStopped)
attr title "backoff active, vector"
vector 266 Network.tx[5].wlan[0].mac.dcf.channelAccess.pendingQueue packetPopped:vector(packetBytes) ETV
attr interpolationmode none
attr title "packet popped, vector(packetBytes)"
vector 267 Network.tx[5].wlan[0].mac.dcf.channelAccess.pendingQueue queueingTime:vector ETV
attr interpolationmode none
attr source queueingTime(packetPopped)
attr title "queueing times, vector"
attr unit s
vector 268 Network.tx[5].wlan[0].mac.dcf.channelAccess.inProgressFrames queueLength:vector ETV
attr interpolationmode sample-hold
attr source "count(packetEnqueued) - count(packetDequeued)"
attr title "queue length, vector"
vector 269 Network.tx[5].wlan[0].mac.dcf datarateSelected:vector ETV
attr interpolationmode none
attr title "datarates selected, vector"
vector 270 Network.tx[5].wlan[0].mac packetSentToLower:vector(packetBytes) ETV
attr interpolationmode none
attr title "packets sent to lower layer, vector(packetBytes)"
vector 271 Network.tx[5].wlan[0].mac.dcf frameSequenceActive:vector ETV
attr interpolationmode sample-hold
attr source count(frameSequenceStarted)-count(frameSequenceFinished)
attr title "frame sequence active, vector"
vector 272 Network.tx[5].wlan[0].radio transmissionState:vector ETV
attr interpolationmode sample-hold
attr source transmissionStateChanged
attr title "Radio transmission state, vector"
vector 273 Network.tx[4].wlan[0].mac.dcf packetSentToPeer:vector(packetBytes) ETV
attr interpolationmode none
attr title "packets sent, vector(packetBytes)"
vector 274 Network.tx[4].wlan[0].mac.dcf packetSentToPeerUnicast:vector(packetBytes) ETV
attr interpolationmode none
attr source ieee80211Unicast(packetSentToPeer)
attr title "packets sent: unicast, vector(packetBytes)"
vector 275 Network.tx[4].wlan[0].mac.dcf packetSentToPeerWithoutRetry:vector(packetBytes) ETV
attr interpolationmode none
attr source ieee80211NotRetry(packetSentToPeer)
attr title "packets sent: without retry, vector(packetBytes)"
vector 276 Network.tx[4].wlan[0].mac.rx nav:vector ETV
attr interpolationmode linear
attr source navChanged
attr title "network allocation vector, vector"
vector 277 Network.frw[5].wlan[0].mac packetReceivedFromLower:vector(packetBytes) ETV
attr interpolationmode none
attr title "packets received from lower layer, vector(packetBytes)"
vector 278 Network.frw[5].wlan[0].mac.dcf packetReceivedFromPeer:vector(packetBytes) ETV
attr interpolationmode none
attr title "packets received, vector(packetBytes)"
vector 279 Network.frw[5].wlan[0].mac.dcf packetReceivedFromPeerUnicast:vector(packetBytes) ETV
attr interpolationmode none
attr source ieee80211Unicast(packetReceivedFromPeer)
attr title "packets received: unicast, vector(packetBytes)"
vector 280 Network.frw[5].wlan[0].mac.dcf packetReceivedFromPeerWithoutRetry:vector(packetBytes) ETV
attr interpolationmode none
attr source ieee80211NotRetry(packetReceivedFromPeer)
attr title "packets received: without retry, vector(packetBytes)"
vector 281 Network.frw[5].wlan[0].mac.dcf datarateSelected:vector ETV
attr interpolationmode none
attr title "datarates selected, vector"
vector 282 Network.frw[5].wlan[0].mac packetSentToUpper:vector(packetBytes) ETV
attr interpolationmode none
attr title "packets sent to upper layer, vector(packetBytes)"
vector 283 Network.frw[5].wlan[0].mac packetReceivedFromUpper:vector(packetBytes) ETV
attr interpolationmode none
attr title "packets received from upper layer, vector(packetBytes)"
vector 284 Network.frw[5].wlan[0].mac.dcf.channelAccess.pendingQueue packetPushed:vector(packetBytes) ETV
attr interpolationmode none
attr title "packet pushed, vector(packetBytes)"
vector 285 Network.frw[5].wlan[0].mac.dcf.channelAccess.pendingQueue queueLength:vector ETV
attr interpolationmode sample-hold
attr source "count(packetPushed) - count(packetPopped) - count(packetRemoved) - count(packetDropped)"
attr title "queue length, vector"
vector 286 Network.frw[5].wlan[0].mac.dcf.channelAccess.contention backoffPeriodGenerated:vector ETV
attr interpolationmode none
attr title "backoff periods, vector"
vector 287 Network.frw[5].wlan[0].mac.dcf.channelAccess.contention backoffActive:vector ETV
attr interpolationmode sample-hold
attr source count(backoffStarted)-count(backoffStopped)
attr title "backoff active, vector"
vector 288 Network.tx[10].wlan[0].mac packetReceivedFromLower:vector(packetBytes) ETV
attr interpolationmode none
attr title "packets received from lower layer, vector(packetBytes)"
vector 289 Network.tx[10].wlan[0].mac.rx nav:vector ETV
attr interpolationmode linear
attr source navChanged
attr title "network allocation vector, vector"
vector 290 Network.tx[10].wlan[0].mac.dcf packetDrop:vector(packetBytes) ETV
attr interpolationmode none
attr source packetDropped
attr title "packet drops, vector(packetBytes)"
vector 291 Network.tx[10].wlan[0].mac.dcf packetDropNotAddressedToUs:vector(packetBytes) ETV
attr interpolationmode none
attr source packetDropReasonIsNotAddressedToUs(packetDropped)
attr title "packet drops: not addressed to us, vector(packetBytes)"
vector 292 Network.tx[10].wlan[0].mac packetDrop:vector(packetBytes) ETV
attr interpolationmode none
attr source packetDropped
attr title "packet drops, vector(packetBytes)"
vector 293 Network.tx[10].wlan[0].mac packetDropNotAddressedToUs:vector(packetBytes) ETV
attr interpolationmode none
attr source packetDropReasonIsNotAddressedToUs(packetDropped)
attr title "packet drops: not addressed to us, vector(packetBytes)"
vector 294 Network.frw[3].wlan[0].mac.rx nav:vector ETV
attr interpolationmode linear
attr source navChanged
attr title "network allocation vector, vector"
vector 295 Network.frw[1].wlan[0].mac packetDropIncorrectlyReceived:vector(packetBytes) ETV
attr interpolationmode none
attr source packetDropReasonIsIncorrectlyReceived(packetDropped)
attr title "packet drops: incorrectly received, vector(packetBytes)"
vector 296 Network.frw[5].wlan[0].mac packetSentToLower:vector(packetBytes) ETV
attr interpolationmode none
attr title "packets sent to lower layer, vector(packetBytes)"
vector 297 Network.frw[5].wlan[0].radio transmissionState:vector ETV
attr interpolationmode sample-hold
attr source transmissionStateChanged
attr title "Radio transmission state, vector"
vector 298 Network.tx[5].wlan[0].mac.dcf packetSentToPeer:vector(packetBytes) ETV
attr interpolationmode none
attr title "packets sent, vector(packetBytes)"
vector 299 Network.tx[5].wlan[0].mac.dcf packetSentToPeerUnicast:vector(packetBytes) ETV
attr interpolationmode none
attr source ieee80211Unicast(packetSentToPeer)
attr title "packets sent: unicast, vector(packetBytes)"
vector 300 Network.tx[5].wlan[0].mac.dcf packetSentToPeerWithoutRetry:vector(packetBytes) ETV
attr interpolationmode none
attr source ieee80211NotRetry(packetSentToPeer)
attr title "packets sent: without retry, vector(packetBytes)"
vector 301 Network.tx[5].wlan[0].mac.rx nav:vector ETV
attr interpolationmode linear
attr source navChanged
attr title "network allocation vector, vector"
vector 302 Network.frw[5].wlan[0].mac.dcf packetSentToPeer:vector(packetBytes) ETV
attr interpolationmode none
attr title "packets sent, vector(packetBytes)"
vector 303 Network.frw[5].wlan[0].mac.dcf packetSentToPeerUnicast:vector(packetBytes) ETV
attr interpolationmode none
attr source ieee80211Unicast(packetSentToPeer)
attr title "packets sent: unicast, vector(packetBytes)"
vector 304 Network.frw[5].wlan[0].mac.dcf packetSentToPeerWithoutRetry:vector(packetBytes) ETV
attr interpolationmode none
attr source ieee80211NotRetry(packetSentToPeer)
attr title "packets sent: without retry, vector(packetBytes)"
vector 305 Network.frw[2].wlan[0].mac packetDropIncorrectlyReceived:vector(packetBytes) ETV
attr interpolationmode none
attr source packetDropReasonIsIncorrectlyReceived(packetDropped)
attr title "packet drops: incorrectly received, vector(packetBytes)"
vector 306 Network.frw[7].wlan[0].mac.dcf.channelAccess.pendingQueue packetPopped:vector(packetBytes) ETV
attr interpolationmode none
attr title "packet popped, vector(packetBytes)"
vector 307 Network.frw[7].wlan[0].mac.dcf.channelAccess.pendingQueue queueingTime:vector ETV
attr interpolationmode none
attr source queueingTime(packetPopped)
attr title "queueing times, vector"
attr unit s
vector 308 Network.frw[7].wlan[0].mac.dcf.channelAccess.inProgressFrames queueLength:vector ETV
attr interpolationmode sample-hold
attr source "count(packetEnqueued) - count(packetDequeued)"
attr title "queue length, vector"
vector 309 Network.frw[7].wlan[0].mac.dcf frameSequenceActive:vector ETV
attr interpolationmode sample-hold
attr source count(frameSequenceStarted)-count(frameSequenceFinished)
attr title "frame sequence active, vector"
vector 310 Network.frw[5].wlan[0].mac.dcf.channelAccess.pendingQueue packetPopped:vector(packetBytes) ETV
attr interpolationmode none
attr title "packet popped, vector(packetBytes)"
vector 311 Network.frw[5].wlan[0].mac.dcf.channelAccess.pendingQueue queueingTime:vector ETV
attr interpolationmode none
attr source queueingTime(packetPopped)
attr title "queueing times, vector"
attr unit s
vector 312 Network.frw[5].wlan[0].mac.dcf.channelAccess.inProgressFrames queueLength:vector ETV
attr interpolationmode sample-hold
attr source "count(packetEnqueued) - count(packetDequeued)"
attr title "queue length, vector"
vector 313 Network.frw[5].wlan[0].mac.dcf frameSequenceActive:vector ETV
attr interpolationmode sample-hold
attr source count(frameSequenceStarted)-count(frameSequenceFinished)
attr title "frame sequence active, vector"
vector 314 Network.frw[5].wlan[0].mac.rx nav:vector ETV
attr interpolationmode linear
attr source navChanged
attr title "network allocation vector, vector"
vector 315 Network.tx[4].wlan[0].mac packetReceivedFromLower:vector(packetBytes) ETV
attr interpolationmode none
attr title "packets received from lower layer, vector(packetBytes)"
vector 316 Network.tx[4].wlan[0].mac.dcf packetDrop:vector(packetBytes) ETV
attr interpolationmode none
attr source packetDropped
attr title "packet drops, vector(packetBytes)"
vector 317 Network.tx[4].wlan[0].mac.dcf packetDropNotAddressedToUs:vector(packetBytes) ETV
attr interpolationmode none
attr source packetDropReasonIsNotAddressedToUs(packetDropped)
attr title "packet drops: not addressed to us, vector(packetBytes)"
vector 318 Network.tx[4].wlan[0].mac packetDrop:vector(packetBytes) ETV
attr interpolationmode none
attr source packetDropped
attr title "packet drops, vector(packetBytes)"
vector 319 Network.tx[4].wlan[0].mac packetDropNotAddressedToUs:vector(packetBytes) ETV
attr interpolationmode none
attr source packetDropReasonIsNotAddressedToUs(packetDropped)
attr title "packet drops: not addressed to us, vector(packetBytes)"
vector 320 Network.frw[2].wlan[0].mac.dcf packetReceivedFromPeer:vector(packetBytes) ETV
attr interpolationmode none
attr title "packets received, vector(packetBytes)"
vector 321 Network.frw[2].wlan[0].mac.dcf packetReceivedFromPeerUnicast:vector(packetBytes) ETV
attr interpolationmode none
attr source ieee80211Unicast(packetReceivedFromPeer)
attr title "packets received: unicast, vector(packetBytes)"
vector 322 Network.frw[2].wlan[0].mac.dcf packetReceivedFromPeerWithoutRetry:vector(packetBytes) ETV
attr interpolationmode none
attr source ieee80211NotRetry(packetReceivedFromPeer)
attr title "packets received: without retry, vector(packetBytes)"
vector 323 Network.frw[2].wlan[0].mac.dcf datarateSelected:vector ETV
attr interpolationmode none
attr title "datarates selected, vector"
vector 324 Network.frw[2].wlan[0].mac packetSentToUpper:vector(packetBytes) ETV
attr interpolationmode none
attr title "packets sent to upper layer, vector(packetBytes)"
vector 325 Network.frw[2].wlan[0].mac packetReceivedFromUpper:vector(packetBytes) ETV
attr interpolationmode none
attr title "packets received from upper layer, vector(packetBytes)"
vector 326 Network.frw[2].wlan[0].mac.dcf.channelAccess.pendingQueue packetPushed:vector(packetBytes) ETV
attr interpolationmode none
attr title "packet pushed, vector(packetBytes)"
vector 327 Network.frw[2].wlan[0].mac.dcf.channelAccess.pendingQueue queueLength:vector ETV
attr interpolationmode sample-hold
attr source "count(packetPushed) - count(packetPopped) - count(packetRemoved) - count(packetDropped)"
attr title "queue length, vector"
vector 328 Network.frw[2].wlan[0].mac.dcf.channelAccess.contention backoffPeriodGenerated:vector ETV
attr interpolationmode none
attr title "backoff periods, vector"
vector 329 Network.frw[2].wlan[0].mac.dcf.channelAccess.contention backoffActive:vector ETV
attr interpolationmode sample-hold
attr source count(backoffStarted)-count(backoffStopped)
attr title "backoff active, vector"
vector 330 Network.frw[2].wlan[0].mac packetSentToLower:vector(packetBytes) ETV
attr interpolationmode none
attr title "packets sent to lower layer, vector(packetBytes)"
vector 331 Network.frw[2].wlan[0].radio transmissionState:vector ETV
attr interpolationmode sample-hold
attr source transmissionStateChanged
attr title "Radio transmission state, vector"
vector 332 Network.frw[2].wlan[0].mac.dcf packetSentToPeer:vector(packetBytes) ETV
attr interpolationmode none
attr title "packets sent, vector(packetBytes)"
vector 333 Network.frw[2].wlan[0].mac.dcf packetSentToPeerUnicast:vector(packetBytes) ETV
attr interpolationmode none
attr source ieee80211Unicast(packetSentToPeer)
attr title "packets sent: unicast, vector(packetBytes)"
vector 334 Network.frw[2].wlan[0].mac.dcf packetSentToPeerWithoutRetry:vector(packetBytes) ETV
attr interpolationmode none
attr source ieee80211NotRetry(packetSentToPeer)
attr title "packets sent: without retry, vector(packetBytes)"
vector 335 Network.frw[5].wlan[0].mac.dcf.channelAccess.inProgressFrames queueingTime:vector ETV
attr interpolationmode none
attr source queueingTime(packetDequeued)
attr title "queueing times, vector"
vector 336 Network.frw[2].wlan[0].mac.dcf.channelAccess.pendingQueue packetPopped:vector(packetBytes) ETV
attr interpolationmode none
attr title "packet popped, vector(packetBytes)"
vector 337 Network.frw[2].wlan[0].mac.dcf.channelAccess.pendingQueue queueingTime:vector ETV
attr interpolationmode none
attr source queueingTime(packetPopped)
attr title "queueing times, vector"
attr unit s
vector 338 Network.frw[2].wlan[0].mac.dcf.channelAccess.inProgressFrames queueLength:vector ETV
attr interpolationmode sample-hold
attr source "count(packetEnqueued) - count(packetDequeued)"
attr title "queue length, vector"
vector 339 Network.frw[2].wlan[0].mac.dcf frameSequenceActive:vector ETV
attr interpolationmode sample-hold
attr source count(frameSequenceStarted)-count(frameSequenceFinished)
attr title "frame sequence active, vector"
vector 340 Network.tx[5].wlan[0].mac.dcf packetSentToPeerWithRetry:vector(packetBytes) ETV
attr interpolationmode none
attr source ieee80211Retry(packetSentToPeer)
attr title "packets sent: with retry, vector(packetBytes)"
vector 341 Network.tx[4].wlan[0].mac.dcf packetSentToPeerWithRetry:vector(packetBytes) ETV
attr interpolationmode none
attr source ieee80211Retry(packetSentToPeer)
attr title "packets sent: with retry, vector(packetBytes)"
vector 342 Network.frw[2].wlan[0].mac.dcf packetSentToPeerWithRetry:vector(packetBytes) ETV
attr interpolationmode none
attr source ieee80211Retry(packetSentToPeer)
attr title "packets sent: with retry, vector(packetBytes)"
vector 343 Network.rx.wlan[0].mac.dcf packetReceivedFromPeerWithRetry:vector(packetBytes) ETV
attr interpolationmode none
attr source ieee80211Retry(packetReceivedFromPeer)
attr title "packets received: with retry, vector(packetBytes)"
vector 344 Network.frw[5].wlan[0].mac.dcf packetDrop:vector(packetBytes) ETV
attr interpolationmode none
attr source packetDropped
attr title "packet drops, vector(packetBytes)"
vector 345 Network.frw[5].wlan[0].mac.dcf packetDropNotAddressedToUs:vector(packetBytes) ETV
attr interpolationmode none
attr source packetDropReasonIsNotAddressedToUs(packetDropped)
attr title "packet drops: not addressed to us, vector(packetBytes)"
vector 346 Network.frw[5].wlan[0].mac packetDrop:vector(packetBytes) ETV
attr interpolationmode none
attr source packetDropped
attr title "packet drops, vector(packetBytes)"
vector 347 Network.frw[5].wlan[0].mac packetDropNotAddressedToUs:vector(packetBytes) ETV
attr interpolationmode none
attr source packetDropReasonIsNotAddressedToUs(packetDropped)
attr title "packet drops: not addressed to us, vector(packetBytes)"
vector 348 Network.frw[7].wlan[0].mac.dcf packetSentToPeerWithRetry:vector(packetBytes) ETV
attr interpolationmode none
attr source ieee80211Retry(packetSentToPeer)
attr title "packets sent: with retry, vector(packetBytes)"
vector 349 Network.tx[0].wlan[0].mac packetDropIncorrectlyReceived:vector(packetBytes) ETV
attr interpolationmode none
attr source packetDropReasonIsIncorrectlyReceived(packetDropped)
attr title "packet drops: incorrectly received, vector(packetBytes)"
vector 350 Network.rx.wlan[0].mac packetDropIncorrectlyReceived:vector(packetBytes) ETV
attr interpolationmode none
attr source packetDropReasonIsIncorrectlyReceived(packetDropped)
attr title "packet drops: incorrectly received, vector(packetBytes)"
vector 351 Network.tx[6].wlan[0].mac packetDropIncorrectlyReceived:vector(packetBytes) ETV
attr interpolationmode none
attr source packetDropReasonIsIncorrectlyReceived(packetDropped)
attr title "packet drops: incorrectly received, vector(packetBytes)"
vector 352 Network.tx[2].wlan[0].mac packetReceivedFromLower:vector(packetBytes) ETV
attr interpolationmode none
attr title "packets received from lower layer, vector(packetBytes)"
vector 353 Network.tx[2].wlan[0].mac.dcf packetDrop:vector(packetBytes) ETV
attr interpolationmode none
attr source packetDropped
attr title "packet drops, vector(packetBytes)"
vector 354 Network.tx[2].wlan[0].mac.dcf packetDropNotAddressedToUs:vector(packetBytes) ETV
attr interpolationmode none
attr source packetDropReasonIsNotAddressedToUs(packetDropped)
attr title "packet drops: not addressed to us, vector(packetBytes)"
vector 355 Network.tx[2].wlan[0].mac packetDrop:vector(packetBytes) ETV
attr interpolationmode none
attr source packetDropped
attr title "packet drops, vector(packetBytes)"
vector 356 Network.tx[2].wlan[0].mac packetDropNotAddressedToUs:vector(packetBytes) ETV
attr interpolationmode none
attr source packetDropReasonIsNotAddressedToUs(packetDropped)
attr title "packet drops: not addressed to us, vector(packetBytes)"
vector 357 Network.tx[7].app[0] packetSent:vector(packetBytes) ETV
attr interpolationmode none
attr source packetSent
attr title "packets sent, vector(packetBytes)"
vector 358 Network.tx[7].udp packetSent:vector(packetBytes) ETV
attr interpolationmode none
attr source packetSent
attr title "packets sent, vector(packetBytes)"
vector 359 Network.tx[7].wlan[0].mac packetReceivedFromUpper:vector(packetBytes) ETV
attr interpolationmode none
attr title "packets received from upper layer, vector(packetBytes)"
vector 360 Network.tx[7].wlan[0].mac.dcf.channelAccess.pendingQueue packetPushed:vector(packetBytes) ETV
attr interpolationmode none
attr title "packet pushed, vector(packetBytes)"
vector 361 Network.tx[7].wlan[0].mac.dcf.channelAccess.pendingQueue queueLength:vector ETV
attr interpolationmode sample-hold
attr source "count(packetPushed) - count(packetPopped) - count(packetRemoved) - count(packetDropped)"
attr title "queue length, vector"
vector 362 Network.tx[7].wlan[0].mac.dcf.channelAccess.contention backoffPeriodGenerated:vector ETV
attr interpolationmode none
attr title "backoff periods, vector"
vector 363 Network.tx[7].wlan[0].mac.dcf.channelAccess.contention backoffActive:vector ETV
attr interpolationmode sample-hold
attr source count(backoffStarted)-count(backoffStopped)
attr title "backoff active, vector"
vector 364 Network.tx[7].wlan[0].mac.dcf.channelAccess.pendingQueue packetPopped:vector(packetBytes) ETV
attr interpolationmode none
attr title "packet popped, vector(packetBytes)"
vector 365 Network.tx[7].wlan[0].mac.dcf.channelAccess.pendingQueue queueingTime:vector ETV
attr interpolationmode none
attr source queueingTime(packetPopped)
attr title "queueing times, vector"
attr unit s
vector 366 Network.tx[7].wlan[0].mac.dcf.channelAccess.inProgressFrames queueLength:vector ETV
attr interpolationmode sample-hold
attr source "count(packetEnqueued) - count(packetDequeued)"
attr title "queue length, vector"
vector 367 Network.tx[7].wlan[0].mac.dcf datarateSelected:vector ETV
attr interpolationmode none
attr title "datarates selected, vector"
vector 368 Network.tx[7].wlan[0].mac packetSentToLower:vector(packetBytes) ETV
attr interpolationmode none
attr title "packets sent to lower layer, vector(packetBytes)"
vector 369 Network.tx[7].wlan[0].mac.dcf frameSequenceActive:vector ETV
attr interpolationmode sample-hold
attr source count(frameSequenceStarted)-count(frameSequenceFinished)
attr title "frame sequence active, vector"
vector 370 Network.tx[7].wlan[0].radio transmissionState:vector ETV
attr interpolationmode sample-hold
attr source transmissionStateChanged
attr title "Radio transmission state, vector"
vector 371 Network.tx[7].wlan[0].mac.dcf packetSentToPeer:vector(packetBytes) ETV
attr interpolationmode none
attr title "packets sent, vector(packetBytes)"
vector 372 Network.tx[7].wlan[0].mac.dcf packetSentToPeerUnicast:vector(packetBytes) ETV
attr interpolationmode none
attr source ieee80211Unicast(packetSentToPeer)
attr title "packets sent: unicast, vector(packetBytes)"
vector 373 Network.tx[7].wlan[0].mac.dcf packetSentToPeerWithoutRetry:vector(packetBytes) ETV
attr interpolationmode none
attr source ieee80211NotRetry(packetSentToPeer)
attr title "packets sent: without retry, vector(packetBytes)"
vector 374 Network.tx[7].wlan[0].mac.rx nav:vector ETV
attr interpolationmode linear
attr source navChanged
attr title "network allocation vector, vector"
vector 375 Network.tx[8].wlan[0].mac packetReceivedFromLower:vector(packetBytes) ETV
attr interpolationmode none
attr title "packets received from lower layer, vector(packetBytes)"
vector 376 Network.tx[8].wlan[0].mac.rx nav:vector ETV
attr interpolationmode linear
attr source navChanged
attr title "network allocation vector, vector"
vector 377 Network.tx[8].wlan[0].mac.dcf packetDrop:vector(packetBytes) ETV
attr interpolationmode none
attr source packetDropped
attr title "packet drops, vector(packetBytes)"
vector 378 Network.tx[8].wlan[0].mac.dcf packetDropNotAddressedToUs:vector(packetBytes) ETV
attr interpolationmode none
attr source packetDropReasonIsNotAddressedToUs(packetDropped)
attr title "packet drops: not addressed to us, vector(packetBytes)"
vector 379 Network.tx[8].wlan[0].mac packetDrop:vector(packetBytes) ETV
attr interpolationmode none
attr source packetDropped
attr title "packet drops, vector(packetBytes)"
vector 380 Network.tx[8].wlan[0].mac packetDropNotAddressedToUs:vector(packetBytes) ETV
attr interpolationmode none
attr source packetDropReasonIsNotAddressedToUs(packetDropped)
attr title "packet drops: not addressed to us, vector(packetBytes)"
vector 381 Network.tx[1].wlan[0].mac packetReceivedFromLower:vector(packetBytes) ETV
attr interpolationmode none
attr title "packets received from lower layer, vector(packetBytes)"
vector 382 Network.tx[1].wlan[0].mac.rx nav:vector ETV
attr interpolationmode linear
attr source navChanged
attr title "network allocation vector, vector"
vector 383 Network.tx[1].wlan[0].mac.dcf packetDrop:vector(packetBytes) ETV
attr interpolationmode none
attr source packetDropped
attr title "packet drops, vector(packetBytes)"
vector 384 Network.tx[1].wlan[0].mac.dcf packetDropNotAddressedToUs:vector(packetBytes) ETV
attr interpolationmode none
attr source packetDropReasonIsNotAddressedToUs(packetDropped)
attr title "packet drops: not addressed to us, vector(packetBytes)"
vector 385 Network.tx[1].wlan[0].mac packetDrop:vector(packetBytes) ETV
attr interpolationmode none
attr source packetDropped
attr title "packet drops, vector(packetBytes)"
vector 386 Network.tx[1].wlan[0].mac packetDropNotAddressedToUs:vector(packetBytes) ETV
attr interpolationmode none
attr source packetDropReasonIsNotAddressedToUs(packetDropped)
attr title "packet drops: not addressed to us, vector(packetBytes)"
vector 387 Network.tx[7].wlan[0].mac.dcf packetSentToPeerWithRetry:vector(packetBytes) ETV
attr interpolationmode none
attr source ieee80211Retry(packetSentToPeer)
attr title "packets sent: with retry, vector(packetBytes)"
vector 388 Network.rx.wlan[0].mac.dcf.recipientMacDataService packetDropDuplicateDetected:vector(packetBytes) ETV
attr interpolationmode none
attr source packetDropReasonIsDuplicateDetected(packetDropped)
attr title "packet drops: duplicate detected, vector(packetBytes)"
vector 389 Network.rx.wlan[0].mac packetDropDuplicateDetected:vector(packetBytes) ETV
attr interpolationmode none
attr source packetDropReasonIsDuplicateDetected(packetDropped)
attr title "packet drops: duplicate detected, vector(packetBytes)"
vector 390 Network.tx[9].wlan[0].mac packetReceivedFromLower:vector(packetBytes) ETV
attr interpolationmode none
attr title "packets received from lower layer, vector(packetBytes)"
vector 391 Network.tx[9].wlan[0].mac.rx nav:vector ETV
attr interpolationmode linear
attr source navChanged
attr title "network allocation vector, vector"
vector 392 Network.tx[9].wlan[0].mac.dcf packetDrop:vector(packetBytes) ETV
attr interpolationmode none
attr source packetDropped
attr title "packet drops, vector(packetBytes)"
vector 393 Network.tx[9].wlan[0].mac.dcf packetDropNotAddressedToUs:vector(packetBytes) ETV
attr interpolationmode none
attr source packetDropReasonIsNotAddressedToUs(packetDropped)
attr title "packet drops: not addressed to us, vector(packetBytes)"
[...]
533	2171	0.00900365865	134
534	2171	0.00900365865	162
535	2171	0.00900365865	1
535	2559	0.00984594993	0
536	2171	0.00900365865	28
536	2654	0.00998294993	59
536	3157	0.01133894993	74
536	3644	0.013589212139	194
536	4223	0.01782525181	75
536	4378	0.01950125181	977
536	6247	0.039838673404	710
537	2171	0.00900365865	1
537	2195	0.00901365865	0
537	2260	0.00904765865	1
537	2368	0.00934994993	0
537	2390	0.00943194993	1
537	2391	0.00943194993	0
537	2410	0.00947594993	1
537	2558	0.00984594993	0
537	2654	0.00998294993	1
537	3038	0.01120194993	0
537	3157	0.01133894993	1
537	3287	0.012358876211	0
537	3332	0.012440876211	1
537	3333	0.012440876211	0
537	3333	0.012440876211	1
537	3356	0.012450964293	0
537	3379	0.012484964293	1
537	3380	0.012484964293	0
537	3380	0.012484964293	1
537	3528	0.012968212139	0
537	3554	0.013002212139	1
537	3570	0.013452212139	0
537	3644	0.013589212139	1
537	3886	0.01601225181	0
537	3908	0.01609425181	1
537	3910	0.01609425181	0
537	3956	0.01613825181	1
537	4175	0.01768825181	0
537	4223	0.01782525181	1
537	4330	0.01936425181	0
537	4378	0.01950125181	1
537	5097	0.027864003113	0
537	5119	0.027946003113	1
537	5120	0.027946003113	0
537	5135	0.027990003113	1
537	5288	0.030783501622	0
537	5310	0.030817501622	1
537	5744	0.034828970912	0
537	5773	0.034910970912	1
537	5774	0.034910970912	0
537	5825	0.034954970912	1
537	5898	0.036625239628	0
537	5925	0.036707239628	1
537	5927	0.036707239628	0
537	5982	0.036751673404	1
537	6146	0.039701673404	0
537	6247	0.039838673404	1
537	6254	0.040405864154	0
537	6275	0.040487864154	1
537	6276	0.040487864154	0
537	6295	0.040531864154	1
537	6472	0.052994409439	0
537	6498	0.053076409439	1
537	6499	0.053076409439	0
537	6543	0.053120409439	1
537	6616	0.054450409439	0
538	2191	0.009013616366	162
538	9080	0.109549930377	162
539	2191	0.009013616366	0.000570635269
539	9080	0.109549930377	0.000194
540	2191	0.009013616366	1
540	5977	0.036751586404	0
540	9080	0.109549930377	1
541	2191	0.009013616366	1
541	2313	0.009150616366	0
541	2362	0.009349616366	1
541	2413	0.009486616366	0
541	3086	0.011278549173	1
541	3186	0.011415549173	0
541	3880	0.016011918246	1
541	3980	0.016148918246	0
541	4029	0.016867918246	1
541	4124	0.017004918246	0
541	5892	0.036624906064	1
541	5977	0.036751586404	0
541	9080	0.109549930377	1
541	9228	0.109686930377	0
541	9231	0.109725930377	1
541	9326	0.109862930377	0
541	9637	0.111481930377	1
541	9709	0.111618930377	0
541	10348	0.115617930377	1
541	10421	0.115754930377	0
541	10478	0.117033930377	1
542	2194	0.00901365865	14
542	2559	0.00984594993	162
542	3039	0.01120194993	162
542	3571	0.013452212139	162
542	4176	0.01768825181	162
542	4331	0.01936425181	162
542	6147	0.039701673404	162
542	6617	0.054450409439	162
543	2195	0.00901365865	1
543	2196	0.00901365865	2
543	2259	0.00904765865	1
543	2260	0.00904765865	0
543	2560	0.00984594993	1
543	2561	0.00984594993	2
543	2628	0.00992794993	1
543	2629	0.00992794993	0
543	3040	0.01120194993	1
543	3041	0.01120194993	2
543	3108	0.01128394993	1
543	3109	0.01128394993	0
543	3572	0.013452212139	1
543	3573	0.013452212139	2
543	3593	0.013534212139	1
543	3594	0.013534212139	0
543	4177	0.01768825181	1
543	4178	0.01768825181	2
543	4198	0.01777025181	1
543	4199	0.01777025181	0
543	4332	0.01936425181	1
543	4333	0.01936425181	2
543	4354	0.01944625181	1
543	4355	0.01944625181	0
543	6148	0.039701673404	1
543	6149	0.039701673404	2
543	6169	0.039783673404	1
543	6170	0.039783673404	0
543	6618	0.054450409439	1
543	6619	0.054450409439	2
543	6639	0.054532409439	1
543	6640	0.054532409439	0
544	2235	0.009018872511	162
544	3133	0.011314872511	162
544	3789	0.014230872511	162
544	4671	0.024186872511	162
544	8757	0.109058872511	162
545	2259	0.00904765865	14
545	2628	0.00992794993	162
545	3108	0.01128394993	162
545	3593	0.013534212139	162
545	4198	0.01777025181	162
545	4354	0.01944625181	162
545	6169	0.039783673404	162
545	6639	0.054532409439	162
546	2259	0.00904765865	14
546	2628	0.00992794993	162
546	3108	0.01128394993	162
546	3593	0.013534212139	162
546	4198	0.01777025181	162
546	4354	0.01944625181	162
546	6169	0.039783673404	162
546	6639	0.054532409439	162
547	2259	0.00904765865	14
547	2628	0.00992794993	162
548	2262	0.009047941689	14
549	2262	0.009047941689	0.000126566078
550	2283	0.009095616366	0
550	2283	0.009095616366	4.4e-05
550	2308	0.009139616366	0
550	2385	0.009431616366	0
550	2385	0.009431616366	4.4e-05
550	2409	0.009475616366	0
550	3159	0.011360549173	0
550	3159	0.011360549173	4.4e-05
550	3184	0.011404549173	0
550	3502	0.012957918246	0
550	3502	0.012957918246	4.4e-05
550	3548	0.013001918246	0
550	3902	0.016093918246	0
550	3902	0.016093918246	4.4e-05
550	3953	0.016137918246	0
550	4052	0.016949918246	0
550	4052	0.016949918246	4.4e-05
550	4097	0.016993918246	0
550	4495	0.021593918329	0
550	4495	0.021593918329	4.4e-05
550	4538	0.021637918329	0
550	5363	0.032781709303	0
550	5363	0.032781709303	4.4e-05
550	5410	0.032825709303	0
550	5516	0.033735243697	0
550	5516	0.033735243697	4.4e-05
550	5535	0.033779243697	0
550	5770	0.034910832745	0
550	5770	0.034910832745	4.4e-05
550	5817	0.034954832745	0
550	5918	0.036706906064	0
550	5918	0.036706906064	4.4e-05
550	5966	0.036750906064	0
550	6645	0.054532743003	0
550	6645	0.054532743003	4.4e-05
550	6667	0.054576743003	0
550	7579	0.105907726156	0
550	7579	0.105907726156	4.4e-05
550	7644	0.105951726156	0
550	9130	0.109631930377	0
550	9130	0.109631930377	4.4e-05
550	9201	0.109675930377	0
550	9301	0.109807930377	0
550	9301	0.109807930377	4.4e-05
550	9325	0.109851930377	0
550	9682	0.111563930377	0
550	9682	0.111563930377	4.4e-05
550	9707	0.111607930377	0
550	10370	0.115699930377	0
550	10370	0.115699930377	4.4e-05
550	10394	0.115743930377	0
551	2315	0.009214226043	162
551	8362	0.108472517373	162
552	2315	0.009214226043	0.00074170867
552	8362	0.108472517373	0
553	2315	0.009214226043	1
553	4328	0.019287226043	0
553	8362	0.108472517373	1
554	2315	0.009214226043	24000000
554	2704	0.010290226043	24000000
554	2750	0.010526226043	24000000
554	3189	0.011962226043	24000000
554	3237	0.012138226043	24000000
554	4228	0.018114226043	24000000
554	4284	0.019150226043	24000000
554	8362	0.108472517373	24000000
554	8958	0.109330251921	24000000
554	9713	0.111886251921	24000000
554	10201	0.115142251921	24000000
555	2315	0.009214226043	162
555	2704	0.010290226043	162
555	2750	0.010526226043	162
555	3189	0.011962226043	162
555	3237	0.012138226043	162
555	4228	0.018114226043	162
555	4284	0.019150226043	162
555	8362	0.108472517373	162
555	8958	0.109330251921	162
555	9713	0.111886251921	162
555	10201	0.115142251921	162
556	2315	0.009214226043	1
556	2384	0.009351226043	0
556	2704	0.010290226043	1
556	2748	0.010427226043	0
556	2750	0.010526226043	1
556	2935	0.010663226043	0
556	3189	0.011962226043	1
556	3235	0.012099226043	0
556	3237	0.012138226043	1
556	3281	0.012275226043	0
556	4228	0.018114226043	1
556	4272	0.018251226043	0
556	4284	0.019150226043	1
556	4328	0.019287226043	0
556	8362	0.108472517373	1
556	8486	0.108609517373	0
556	8958	0.109330251921	1
556	9078	0.109467251921	0
556	9713	0.111886251921	1
556	9757	0.112023251921	0
556	10201	0.115142251921	1
556	10245	0.115279251921	0
557	2316	0.009214226043	1
557	2317	0.009214226043	2
557	2337	0.009296226043	1
557	2338	0.009296226043	0
557	2705	0.010290226043	1
557	2706	0.010290226043	2
557	2726	0.010372226043	1
557	2727	0.010372226043	0
557	2751	0.010526226043	1
557	2752	0.010526226043	2
557	2818	0.010608226043	1
557	2819	0.010608226043	0
557	3190	0.011962226043	1
557	3191	0.011962226043	2
557	3211	0.012044226043	1
557	3212	0.012044226043	0
557	3238	0.012138226043	1
557	3239	0.012138226043	2
557	3259	0.012220226043	1
557	3260	0.012220226043	0
557	4229	0.018114226043	1
557	4230	0.018114226043	2
557	4250	0.018196226043	1
557	4251	0.018196226043	0
557	4285	0.019150226043	1
557	4286	0.019150226043	2
557	4306	0.019232226043	1
557	4307	0.019232226043	0
557	8363	0.108472517373	1
557	8364	0.108472517373	2
557	8439	0.108554517373	1
557	8440	0.108554517373	0
557	8959	0.109330251921	1
557	8960	0.109330251921	2
557	9056	0.109412251921	1
557	9057	0.109412251921	0
557	9714	0.111886251921	1
557	9715	0.111886251921	2
557	9735	0.111968251921	1
557	9736	0.111968251921	0
557	10202	0.115142251921	1
557	10203	0.115142251921	2
557	10223	0.115224251921	1
557	10224	0.115224251921	0
558	2337	0.009296226043	162
558	2726	0.010372226043	162
558	2818	0.010608226043	162
558	3211	0.012044226043	162
558	3259	0.012220226043	162
558	4250	0.018196226043	162
558	4306	0.019232226043	162
558	8439	0.108554517373	162
558	9056	0.109412251921	162
558	9735	0.111968251921	162
558	10223	0.115224251921	162
559	2337	0.009296226043	162
559	2726	0.010372226043	162
559	2818	0.010608226043	162
559	3211	0.012044226043	162
559	3259	0.012220226043	162
559	4250	0.018196226043	162
559	4306	0.019232226043	162
559	8439	0.108554517373	162
559	9056	0.109412251921	162
559	9735	0.111968251921	162
559	10223	0.115224251921	162
560	2337	0.009296226043	162
560	8439	0.108554517373	162
561	2385	0.009431616366	162
561	3159	0.011360549173	162
561	3902	0.016093918246	162
561	4052	0.016949918246	162
561	5918	0.036706906064	162
561	9301	0.109807930377	162
561	9682	0.111563930377	162
561	10370	0.115699930377	162
562	2437	0.009571551543	100
562	9102	0.109571551543	100
563	2439	0.009571551543	108
563	9103	0.109571551543	108
564	2442	0.009571551543	134
564	9106	0.109571551543	134
565	2442	0.009571551543	162
565	9106	0.109571551543	162
566	2442	0.009571551543	1
566	2656	0.010085857469	0
566	9106	0.109571551543	1
566	9156	0.109649856923	0
567	2442	0.009571551543	19
567	2702	0.010222857469	23
567	3036	0.010858857469	82
567	3471	0.012674857469	150
567	3876	0.015850857469	442
567	4890	0.025043134712	708
567	6145	0.039571411778	732
567	9106	0.109571551543	25
567	9299	0.109786856923	22
567	9397	0.110402856923	81
567	9828	0.112198856923	23
567	10015	0.112834856923	294
568	2445	0.009611857469	1
568	2446	0.009611857469	0
568	2466	0.009655857469	1
568	2655	0.010085857469	0
568	2702	0.010222857469	1
568	2988	0.010721857469	0
568	3036	0.010858857469	1
568	3423	0.012537857469	0
568	3471	0.012674857469	1
568	3827	0.015713857469	0
568	3876	0.015850857469	1
568	4387	0.019930134712	0
568	4408	0.020012134712	1
568	4409	0.020012134712	0
568	4429	0.020056134712	1
568	4841	0.024906134712	0
568	4890	0.025043134712	1
568	5195	0.030478411778	0
568	5216	0.030560411778	1
568	5217	0.030560411778	0
568	5237	0.030604411778	1
568	6098	0.039434411778	0
568	6145	0.039571411778	1
568	6568	0.054250411778	0
568	9106	0.109571551543	1
568	9155	0.109649856923	0
568	9299	0.109786856923	1
568	9327	0.110265856923	0
568	9397	0.110402856923	1
568	9758	0.112061856923	0
568	9828	0.112198856923	1
568	9947	0.112697856923	0
568	10015	0.112834856923	1
568	10047	0.112998133233	0
568	10091	0.113080133233	1
568	10092	0.113080133233	0
568	10133	0.113124133233	1
569	2517	0.009828676015	162
569	3331	0.012440681254	162
569	5265	0.030773218583	162
570	2517	0.009828676015	162
570	3331	0.012440681254	162
570	5265	0.030773218583	162
571	2559	0.00984594993	162
572	2559	0.00984594993	0.00084229128
573	2559	0.00984594993	1
573	6671	0.054587409439	0
574	2559	0.00984594993	1
574	2654	0.00998294993	0
574	3039	0.01120194993	1
574	3157	0.01133894993	0
574	3571	0.013452212139	1
574	3644	0.013589212139	0
574	4176	0.01768825181	1
574	4223	0.01782525181	0
574	4331	0.01936425181	1
574	4378	0.01950125181	0
574	6147	0.039701673404	1
574	6247	0.039838673404	0
574	6617	0.054450409439	1
574	6671	0.054587409439	0
575	2585	0.009872944154	14
575	3378	0.01248494951	14
575	7501	0.105291667481	162
576	2605	0.009888058193	162
576	2839	0.010624058193	162
577	2656	0.010085857469	162
577	9156	0.109649856923	162
578	2656	0.010085857469	0.000514305926
578	9156	0.109649856923	7.830538e-05
579	2656	0.010085857469	1
579	6615	0.054387411778	0
579	9156	0.109649856923	1
580	2656	0.010085857469	24000000
580	2989	0.010721857469	24000000
580	3424	0.012537857469	24000000
580	3828	0.015713857469	24000000
580	4842	0.024906134712	24000000
580	6099	0.039434411778	24000000
580	6569	0.054250411778	24000000
580	9156	0.109649856923	24000000
580	9328	0.110265856923	24000000
580	9759	0.112061856923	24000000
580	9948	0.112697856923	24000000
581	2656	0.010085857469	162
581	2989	0.010721857469	162
581	3424	0.012537857469	162
581	3828	0.015713857469	162
581	4842	0.024906134712	162
581	6099	0.039434411778	162
581	6569	0.054250411778	162
581	9156	0.109649856923	162
581	9328	0.110265856923	162
581	9759	0.112061856923	162
581	9948	0.112697856923	162
582	2656	0.010085857469	1
582	2702	0.010222857469	0
582	2989	0.010721857469	1
582	3036	0.010858857469	0
582	3424	0.012537857469	1
582	3471	0.012674857469	0
582	3828	0.015713857469	1
582	3876	0.015850857469	0
582	4842	0.024906134712	1
582	4890	0.025043134712	0
582	6099	0.039434411778	1
582	6145	0.039571411778	0
582	6569	0.054250411778	1
582	6615	0.054387411778	0
582	9156	0.109649856923	1
582	9299	0.109786856923	0
582	9328	0.110265856923	1
582	9397	0.110402856923	0
582	9759	0.112061856923	1
582	9828	0.112198856923	0
582	9948	0.112697856923	1
582	10015	0.112834856923	0
583	2657	0.010085857469	1
583	2658	0.010085857469	2
583	2678	0.010167857469	1
583	2679	0.010167857469	0
583	2990	0.010721857469	1
583	2991	0.010721857469	2
583	3011	0.010803857469	1
583	3012	0.010803857469	0
583	3425	0.012537857469	1
583	3426	0.012537857469	2
583	3447	0.012619857469	1
583	3448	0.012619857469	0
583	3829	0.015713857469	1
583	3830	0.015713857469	2
583	3851	0.015795857469	1
583	3852	0.015795857469	0
583	4843	0.024906134712	1
583	4844	0.024906134712	2
583	4864	0.024988134712	1
583	4865	0.024988134712	0
583	6100	0.039434411778	1
583	6101	0.039434411778	2
583	6121	0.039516411778	1
583	6122	0.039516411778	0
583	6570	0.054250411778	1
583	6571	0.054250411778	2
583	6591	0.054332411778	1
583	6592	0.054332411778	0
583	9157	0.109649856923	1
583	9158	0.109649856923	2
583	9253	0.109731856923	1
583	9254	0.109731856923	0
583	9329	0.110265856923	1
583	9330	0.110265856923	2
583	9350	0.110347856923	1
583	9351	0.110347856923	0
583	9760	0.112061856923	1
583	9761	0.112061856923	2
583	9804	0.112143856923	1
583	9805	0.112143856923	0
583	9949	0.112697856923	1
583	9950	0.112697856923	2
583	9993	0.112779856923	1
583	9994	0.112779856923	0
584	2678	0.010167857469	162
584	3011	0.010803857469	162
584	3447	0.012619857469	162
584	3851	0.015795857469	162
584	4864	0.024988134712	162
584	6121	0.039516411778	162
584	6591	0.054332411778	162
584	9253	0.109731856923	162
584	9350	0.110347856923	162
584	9804	0.112143856923	162
584	9993	0.112779856923	162
585	2678	0.010167857469	162
585	3011	0.010803857469	162
585	3447	0.012619857469	162
585	3851	0.015795857469	162
585	4864	0.024988134712	162
585	6121	0.039516411778	162
585	6591	0.054332411778	162
585	9253	0.109731856923	162
585	9350	0.110347856923	162
585	9804	0.112143856923	162
585	9993	0.112779856923	162
586	2678	0.010167857469	162
586	9253	0.109731856923	162
587	2681	0.010167996166	162
587	3014	0.01080399616	162
587	3450	0.012619996141	162
587	3854	0.01579599611	162
587	4867	0.024988273269	162
587	6124	0.039516550218	162
587	6594	0.054332550119	162
587	9256	0.10973199508	162
587	9353	0.110347995079	162
587	9807	0.112143995078	162
588	2681	0.010167996166	162
588	3014	0.01080399616	162
588	3450	0.012619996141	162
588	3854	0.01579599611	162
588	4867	0.024988273269	162
588	5238	0.030615273269	162
588	6124	0.039516550218	162
588	6594	0.054332550119	162
588	9353	0.110347995079	162
588	9807	0.112143995078	162
589	2681	0.010167996166	162
589	3014	0.01080399616	162
589	3450	0.012619996141	162
589	3854	0.01579599611	162
589	4867	0.024988273269	162
589	6124	0.039516550218	162
589	6594	0.054332550119	162
589	9353	0.110347995079	162
589	9807	0.112143995078	162
590	2681	0.010167996166	162
590	3014	0.01080399616	162
590	3450	0.012619996141	162
590	3854	0.01579599611	162
590	4867	0.024988273269	162
590	5238	0.030615273269	162
590	6124	0.039516550218	162
590	6594	0.054332550119	162
590	9256	0.10973199508	162
590	9353	0.110347995079	162
590	9807	0.112143995078	162
591	2681	0.010167996166	162
591	3014	0.01080399616	162
591	3450	0.012619996141	162
591	3854	0.01579599611	162
591	4867	0.024988273269	162
591	6124	0.039516550218	162
591	6594	0.054332550119	162
591	9353	0.110347995079	162
591	9807	0.112143995078	162
592	2726	0.010372226043	162
592	2818	0.010608226043	162
592	3211	0.012044226043	162
592	3259	0.012220226043	162
592	4250	0.018196226043	162
592	4306	0.019232226043	162
592	9056	0.109412251921	162
592	9735	0.111968251921	162
592	10223	0.115224251921	162
593	2940	0.010668425087	14
593	8713	0.108983619025	14
594	2940	0.010668425087	14
594	8713	0.108983619025	14
595	2940	0.010668425087	14
595	8713	0.108983619025	14
596	2940	0.010668425087	0.002225767646
596	8713	0.108983619025	0.00012635752
597	2968	0.010678525916	0.005289271321
597	6549	0.053120609577	0.000126533702
598	3011	0.010803857469	162
598	3447	0.012619857469	162
598	3851	0.015795857469	162
598	4864	0.024988134712	162
598	6121	0.039516411778	162
598	6591	0.054332411778	162
598	9350	0.110347856923	162
598	9804	0.112143856923	162
598	9993	0.112779856923	162
599	3108	0.01128394993	162
599	3593	0.013534212139	162
599	4198	0.01777025181	162
599	4354	0.01944625181	162
599	6169	0.039783673404	162
599	6639	0.054532409439	162
600	3333	0.012440876211	162
600	3380	0.012484964293	14
601	3499	0.012957610798	162
601	4579	0.023130364132	162
602	3499	0.012957610798	162
602	4579	0.023130364132	162
603	3612	0.01353510806	162
603	8471	0.108572101914	14
604	3612	0.01353510806	162
604	5585	0.03401810806	162
605	3612	0.01353510806	162
606	3612	0.01353510806	162
606	5585	0.03401810806	162
606	8471	0.108572101914	14
607	3612	0.01353510806	162
608	4328	0.019287226043	0.010073
609	4328	0.019287226043	162
610	4328	0.019287226043	162
611	4643	0.023184987497	0.019341170415
612	4643	0.023184987497	162
613	4643	0.023184987497	162
614	4723	0.024231356697	14
614	8813	0.109103356195	14
615	4723	0.024231356697	14
615	8813	0.109103356195	14
616	4723	0.024231356697	14
616	8813	0.109103356195	14
617	4723	0.024231356697	0.015530484186
617	8813	0.109103356195	0.000402483684
618	4820	0.024543697149	162
618	8546	0.108783341254	162
618	8768	0.109059341267	162
619	4915	0.025819114604	162
619	5063	0.027535114604	162
619	5164	0.030131114604	162
619	6073	0.038963768344	162
619	6393	0.052899768344	162
619	7490	0.105290946894	162
619	8128	0.107213538447	162
619	9398	0.110435114353	162
619	9922	0.112587705898	162
619	10271	0.11549949397	162
620	5039	0.027297803963	0.026730674206
620	6930	0.101689828777	0.00112269902
621	5039	0.027297803963	162
622	5039	0.027297803963	162
623	5238	0.030615273269	0.024133554503
624	5238	0.030615273269	162
625	5238	0.030615273269	162
626	5371	0.032782168969	162
626	6878	0.101645479271	162
627	5433	0.032836401772	0.02786020729
627	6775	0.056546213595	0.044141356891
628	5433	0.032836401772	162
628	6775	0.056546213595	162
629	5433	0.032836401772	162
629	6775	0.056546213595	162
630	5585	0.03401810806	0.029218336346
631	5585	0.03401810806	162
632	5585	0.03401810806	162
633	5611	0.034474168969	162
633	7019	0.103477479271	162
633	7320	0.104953479271	162
633	7710	0.106189479271	162
633	7932	0.106825479271	162
633	9544	0.111055435472	162
634	5614	0.034474499181	162
635	5696	0.034518976905	14
636	5977	0.036751586404	0.027737970038
637	6296	0.040542399413	0.032533291888
638	6296	0.040542399413	162
639	6296	0.040542399413	162
640	6398	0.052900075875	162
640	9405	0.110435421884	162
640	10276	0.115499801501	162
641	6615	0.054387411778	0.044301554309
642	6615	0.054387411778	162
643	6615	0.054387411778	162
644	6671	0.054587409439	0.044741459509
645	6671	0.054587409439	162
646	6671	0.054587409439	162
647	6930	0.101689828777	14
648	6930	0.101689828777	14
649	6930	0.101689828777	14
650	7570	0.1	48000
651	8471	0.108572101914	14
652	8615	0.108939440267	162
653	8980	0.109355739499	162
654	8983	0.109355930377	162
655	9209	0.109679925299	162
655	9314	0.109808500372	162
656	9256	0.10973199508	162
657	9405	0.110435421884	162
658	9405	0.110435421884	162
659	9496	0.110674500372	162
659	9659	0.111510500372	162
659	10016	0.112846500372	162

