version 2
run InLineForwarder-0-20200527-18:23:25-3996
attr configname InLineForwarder
attr datetime 20200527-18:23:25
attr experiment InLineForwarder
attr inifile new.ini
attr iterationvars ""
attr iterationvarsf ""
attr measurement ""
attr network Network
attr processid 3996
attr repetition 0
attr replication #0
attr resultdir results
attr runnumber 0
attr seedset 0
param **.num_tx 1
param **.num_frw 3
param **.frw[*].mobility.typename "\"StationaryMobility\""
param **.frw[*].mobility.initFromDisplayString false
param **.tx[0].mobility.typename "\"LinearMobility\""
param **.tx[0].mobility.initFromDisplayString false
param **.tx[0].mobility.speed 10mps
param **.tx[0].mobility.initialMovementHeading 180deg
param **.tx[0].mobility.updateInterval 100ms
param **.tx[0].mobility.constraintAreaMinX 100m
param **.tx[0].mobility.constraintAreaMaxX 300m
param **.rx.mobility.typename "\"LinearMobility\""
param **.rx.mobility.initFromDisplayString false
param **.rx.mobility.speed 10mps
param **.rx.mobility.initialMovementHeading 0deg
param **.rx.mobility.updateInterval 100ms
param **.rx.mobility.constraintAreaMinX 500m
param **.rx.mobility.constraintAreaMaxX 700m
param **.rx.mobility.initialZ 0m
param **.frw[*].mobility.initialZ 0m
param **.tx[0].mobility.initialZ 0m
param **.rx.mobility.initialX 600m
param **.rx.mobility.initialY 250m
param **.frw[0].mobility.initialX 500m
param **.frw[0].mobility.initialY 250m
param **.frw[1].mobility.initialX 400m
param **.frw[1].mobility.initialY 250m
param **.frw[2].mobility.initialX 300m
param **.frw[2].mobility.initialY 250m
param **.tx[0].mobility.initialX 200m
param **.tx[0].mobility.initialY 250m
param **.tx[0].generic.nextHop.nextHopParam "\"frw[2].wlan[0]\""
param **.frw[2].generic.nextHop.nextHopParam "\"frw[1].wlan[0]\""
param **.frw[1].generic.nextHop.nextHopParam "\"frw[0].wlan[0]\""
param **.frw[0].generic.nextHop.nextHopParam "\"rx.wlan[0]\""
param **.rx.generic.nextHop.nextHopParam "\"null\""
param **.constraintAreaMaxX 700m
param **.constraintAreaMaxY 700m
param **.constraintAreaMaxZ 0m
param **.constraintAreaMinX 0m
param **.constraintAreaMinY 0m
param **.constraintAreaMinZ 0m
param **.radioMedium.pathLoss.typename "\"LogNormalShadowing\""
param **.radioMedium.pathLoss.alpha 4.03
param **.radioMedium.pathLoss.sigma 4.98
param **.numApps 1
param **.rx.app[0].typename "\"UdpSink\""
param **.rx.app[0].localPort 2345
param **.frw[*].app[0].typename "\"UdpSink\""
param **.frw[*].app[0].localPort 2345
param **.tx[*].app[0].typename "\"UdpBasicApp\""
param **.tx[*].app[0].destPort 2345
param **.tx[*].app[0].destAddresses "\"rx\""
param **.tx[*].app[0].messageLength 100B
param **.tx[*].app[0].startTime "uniform(0s, 10ms)"
param **.tx[*].app[0].sendInterval 100ms
param **.tx[*].app[0].packetName "\"Data\""
param **.networkConfiguratorModule "\"networkConfigurator\""
param **.networkConfigurator.config "xmldoc(\"scenario.xml\")"
param **.tx[*].hasIpv4 false
param **.tx[*].hasIpv6 false
param **.tx[*].hasGn true
param **.tx[*].generic.typename "\"NextHopNetworkLayer\""
param **.tx[*].generic.nextHop.hopLimit 4
param **.frw[*].hasIpv4 false
param **.frw[*].hasIpv6 false
param **.frw[*].hasGn true
param **.frw[*].generic.typename "\"NextHopNetworkLayer\""
param **.frw[*].generic.nextHop.hopLimit 4
param **.rx.hasIpv4 false
param **.rx.hasIpv6 false
param **.rx.hasGn true
param **.rx.generic.typename "\"NextHopNetworkLayer\""
param **.networkConfigurator.typename "\"NextHopNetworkConfigurator\""
param *.tx[*].wlan[2].radio.displayCommunicationRange true
param *.visualizer.sceneVisualizer.descriptionFigure "\"title\""
param *.visualizer.mediumVisualizer.displaySignals true
param *.visualizer.physicalLinkVisualizer.displayLinks true
param *.tx[*].wlan[0].radio.transmitter.communicationRange 500m
param *.tx[*].wlan[0].radio.displayCommunicationRange true

vector 0 Network.tx[0].wlan[0].radio radioMode:vector ETV
attr interpolationmode sample-hold
attr source radioModeChanged
attr title "Radio mode, vector"
vector 1 Network.tx[0].wlan[0].radio radioChannel:vector ETV
attr interpolationmode sample-hold
attr source radioChannelChanged
attr title "Radio channel, vector"
vector 2 Network.rx.wlan[0].radio radioMode:vector ETV
attr interpolationmode sample-hold
attr source radioModeChanged
attr title "Radio mode, vector"
vector 3 Network.rx.wlan[0].radio radioChannel:vector ETV
attr interpolationmode sample-hold
attr source radioChannelChanged
attr title "Radio channel, vector"
vector 4 Network.frw[0].wlan[0].radio radioMode:vector ETV
attr interpolationmode sample-hold
attr source radioModeChanged
attr title "Radio mode, vector"
vector 5 Network.frw[0].wlan[0].radio radioChannel:vector ETV
attr interpolationmode sample-hold
attr source radioChannelChanged
attr title "Radio channel, vector"
vector 6 Network.frw[1].wlan[0].radio radioMode:vector ETV
attr interpolationmode sample-hold
attr source radioModeChanged
attr title "Radio mode, vector"
vector 7 Network.frw[1].wlan[0].radio radioChannel:vector ETV
attr interpolationmode sample-hold
attr source radioChannelChanged
attr title "Radio channel, vector"
vector 8 Network.frw[2].wlan[0].radio radioMode:vector ETV
attr interpolationmode sample-hold
attr source radioModeChanged
attr title "Radio mode, vector"
vector 9 Network.frw[2].wlan[0].radio radioChannel:vector ETV
attr interpolationmode sample-hold
attr source radioChannelChanged
attr title "Radio channel, vector"
vector 10 Network.tx[0].wlan[0].radio receptionState:vector ETV
attr interpolationmode sample-hold
attr source receptionStateChanged
attr title "Radio reception state, vector"
vector 11 Network.rx.wlan[0].radio receptionState:vector ETV
attr interpolationmode sample-hold
attr source receptionStateChanged
attr title "Radio reception state, vector"
vector 12 Network.frw[0].wlan[0].radio receptionState:vector ETV
attr interpolationmode sample-hold
attr source receptionStateChanged
attr title "Radio reception state, vector"
vector 13 Network.frw[1].wlan[0].radio receptionState:vector ETV
attr interpolationmode sample-hold
attr source receptionStateChanged
attr title "Radio reception state, vector"
vector 14 Network.frw[2].wlan[0].radio receptionState:vector ETV
attr interpolationmode sample-hold
attr source receptionStateChanged
attr title "Radio reception state, vector"
vector 15 Network.tx[0].wlan[0].mac.dcf.recoveryProcedure contentionWindowChanged:vector ETV
attr interpolationmode sample-hold
attr title "contention window, vector"
vector 16 Network.rx.wlan[0].mac.dcf.recoveryProcedure contentionWindowChanged:vector ETV
attr interpolationmode sample-hold
attr title "contention window, vector"
vector 17 Network.frw[0].wlan[0].mac.dcf.recoveryProcedure contentionWindowChanged:vector ETV
attr interpolationmode sample-hold
attr title "contention window, vector"
vector 18 Network.frw[1].wlan[0].mac.dcf.recoveryProcedure contentionWindowChanged:vector ETV
attr interpolationmode sample-hold
attr title "contention window, vector"
vector 19 Network.frw[2].wlan[0].mac.dcf.recoveryProcedure contentionWindowChanged:vector ETV
attr interpolationmode sample-hold
attr title "contention window, vector"
vector 20 Network.tx[0].app[0] packetSent:vector(packetBytes) ETV
attr interpolationmode none
attr source packetSent
attr title "packets sent, vector(packetBytes)"
vector 21 Network.tx[0].udp packetSent:vector(packetBytes) ETV
attr interpolationmode none
attr source packetSent
attr title "packets sent, vector(packetBytes)"
vector 22 Network.tx[0].wlan[0].mac packetReceivedFromUpper:vector(packetBytes) ETV
attr interpolationmode none
attr title "packets received from upper layer, vector(packetBytes)"
vector 23 Network.tx[0].wlan[0].mac.dcf.channelAccess.pendingQueue packetPushed:vector(packetBytes) ETV
attr interpolationmode none
attr title "packet pushed, vector(packetBytes)"
vector 24 Network.tx[0].wlan[0].mac.dcf.channelAccess.pendingQueue queueLength:vector ETV
attr interpolationmode sample-hold
attr source "count(packetPushed) - count(packetPopped) - count(packetRemoved) - count(packetDropped)"
attr title "queue length, vector"
vector 25 Network.tx[0].wlan[0].mac.dcf.channelAccess.contention backoffPeriodGenerated:vector ETV
attr interpolationmode none
attr title "backoff periods, vector"
vector 26 Network.tx[0].wlan[0].mac.dcf.channelAccess.contention backoffActive:vector ETV
attr interpolationmode sample-hold
attr source count(backoffStarted)-count(backoffStopped)
attr title "backoff active, vector"
vector 27 Network.tx[0].wlan[0].mac.dcf.channelAccess.pendingQueue packetPopped:vector(packetBytes) ETV
attr interpolationmode none
attr title "packet popped, vector(packetBytes)"
vector 28 Network.tx[0].wlan[0].mac.dcf.channelAccess.pendingQueue queueingTime:vector ETV
attr interpolationmode none
attr source queueingTime(packetPopped)
attr title "queueing times, vector"
attr unit s
vector 29 Network.tx[0].wlan[0].mac.dcf.channelAccess.inProgressFrames queueLength:vector ETV
attr interpolationmode sample-hold
attr source "count(packetEnqueued) - count(packetDequeued)"
attr title "queue length, vector"
vector 30 Network.tx[0].wlan[0].mac.dcf datarateSelected:vector ETV
attr interpolationmode none
attr title "datarates selected, vector"
vector 31 Network.tx[0].wlan[0].mac packetSentToLower:vector(packetBytes) ETV
attr interpolationmode none
attr title "packets sent to lower layer, vector(packetBytes)"
vector 32 Network.tx[0].wlan[0].mac.dcf frameSequenceActive:vector ETV
attr interpolationmode sample-hold
attr source count(frameSequenceStarted)-count(frameSequenceFinished)
attr title "frame sequence active, vector"
vector 33 Network.tx[0].wlan[0].radio transmissionState:vector ETV
attr interpolationmode sample-hold
attr source transmissionStateChanged
attr title "Radio transmission state, vector"
vector 34 Network.tx[0].wlan[0].mac.dcf packetSentToPeer:vector(packetBytes) ETV
attr interpolationmode none
attr title "packets sent, vector(packetBytes)"
vector 35 Network.tx[0].wlan[0].mac.dcf packetSentToPeerUnicast:vector(packetBytes) ETV
attr interpolationmode none
attr source ieee80211Unicast(packetSentToPeer)
attr title "packets sent: unicast, vector(packetBytes)"
vector 36 Network.tx[0].wlan[0].mac.dcf packetSentToPeerWithoutRetry:vector(packetBytes) ETV
attr interpolationmode none
attr source ieee80211NotRetry(packetSentToPeer)
attr title "packets sent: without retry, vector(packetBytes)"
vector 37 Network.tx[0].wlan[0].mac.rx nav:vector ETV
attr interpolationmode linear
attr source navChanged
attr title "network allocation vector, vector"
vector 38 Network.tx[0].wlan[0].mac.dcf packetSentToPeerWithRetry:vector(packetBytes) ETV
attr interpolationmode none
attr source ieee80211Retry(packetSentToPeer)
attr title "packets sent: with retry, vector(packetBytes)"
vector 39 Network.tx[0].wlan[0].mac.dcf.channelAccess.inProgressFrames queueingTime:vector ETV
attr interpolationmode none
attr source queueingTime(packetDequeued)
attr title "queueing times, vector"
vector 40 Network.tx[0].wlan[0].mac.dcf packetDrop:vector(packetBytes) ETV
attr interpolationmode none
attr source packetDropped
attr title "packet drops, vector(packetBytes)"
vector 41 Network.tx[0].wlan[0].mac.dcf packetDropRetryLimitReached:vector(packetBytes) ETV
attr interpolationmode none
attr source packetDropReasonIsRetryLimitReached(packetDropped)
attr title "packet drops: retry limit reached, vector(packetBytes)"
vector 42 Network.tx[0].wlan[0].mac packetDrop:vector(packetBytes) ETV
attr interpolationmode none
attr source packetDropped
attr title "packet drops, vector(packetBytes)"
vector 43 Network.tx[0].wlan[0].mac packetDropRetryLimitReached:vector(packetBytes) ETV
attr interpolationmode none
attr source packetDropReasonIsRetryLimitReached(packetDropped)
attr title "packet drops: retry limit reached, vector(packetBytes)"
vector 44 Network.frw[2].wlan[0].mac packetReceivedFromLower:vector(packetBytes) ETV
attr interpolationmode none
attr title "packets received from lower layer, vector(packetBytes)"
vector 45 Network.frw[2].wlan[0].mac.dcf packetReceivedFromPeer:vector(packetBytes) ETV
attr interpolationmode none
attr title "packets received, vector(packetBytes)"
vector 46 Network.frw[2].wlan[0].mac.dcf packetReceivedFromPeerUnicast:vector(packetBytes) ETV
attr interpolationmode none
attr source ieee80211Unicast(packetReceivedFromPeer)
attr title "packets received: unicast, vector(packetBytes)"
vector 47 Network.frw[2].wlan[0].mac.dcf packetReceivedFromPeerWithRetry:vector(packetBytes) ETV
attr interpolationmode none
attr source ieee80211Retry(packetReceivedFromPeer)
attr title "packets received: with retry, vector(packetBytes)"
vector 48 Network.frw[2].wlan[0].mac.dcf datarateSelected:vector ETV
attr interpolationmode none
attr title "datarates selected, vector"
vector 49 Network.frw[2].wlan[0].mac packetSentToUpper:vector(packetBytes) ETV
attr interpolationmode none
attr title "packets sent to upper layer, vector(packetBytes)"
vector 50 Network.frw[2].wlan[0].mac packetReceivedFromUpper:vector(packetBytes) ETV
attr interpolationmode none
attr title "packets received from upper layer, vector(packetBytes)"
vector 51 Network.frw[2].wlan[0].mac.dcf.channelAccess.pendingQueue packetPushed:vector(packetBytes) ETV
attr interpolationmode none
attr title "packet pushed, vector(packetBytes)"
vector 52 Network.frw[2].wlan[0].mac.dcf.channelAccess.pendingQueue queueLength:vector ETV
attr interpolationmode sample-hold
attr source "count(packetPushed) - count(packetPopped) - count(packetRemoved) - count(packetDropped)"
attr title "queue length, vector"
vector 53 Network.frw[2].wlan[0].mac.dcf.channelAccess.contention backoffPeriodGenerated:vector ETV
attr interpolationmode none
attr title "backoff periods, vector"
vector 54 Network.frw[2].wlan[0].mac.dcf.channelAccess.contention backoffActive:vector ETV
attr interpolationmode sample-hold
attr source count(backoffStarted)-count(backoffStopped)
attr title "backoff active, vector"
vector 55 Network.frw[2].wlan[0].mac packetSentToLower:vector(packetBytes) ETV
attr interpolationmode none
attr title "packets sent to lower layer, vector(packetBytes)"
vector 56 Network.frw[2].wlan[0].radio transmissionState:vector ETV
attr interpolationmode sample-hold
attr source transmissionStateChanged
attr title "Radio transmission state, vector"
vector 57 Network.frw[2].wlan[0].mac.dcf packetSentToPeer:vector(packetBytes) ETV
attr interpolationmode none
attr title "packets sent, vector(packetBytes)"
vector 58 Network.frw[2].wlan[0].mac.dcf packetSentToPeerUnicast:vector(packetBytes) ETV
attr interpolationmode none
attr source ieee80211Unicast(packetSentToPeer)
attr title "packets sent: unicast, vector(packetBytes)"
vector 59 Network.frw[2].wlan[0].mac.dcf packetSentToPeerWithoutRetry:vector(packetBytes) ETV
attr interpolationmode none
attr source ieee80211NotRetry(packetSentToPeer)
attr title "packets sent: without retry, vector(packetBytes)"
vector 60 Network.frw[2].wlan[0].mac.dcf.channelAccess.pendingQueue packetPopped:vector(packetBytes) ETV
attr interpolationmode none
attr title "packet popped, vector(packetBytes)"
vector 61 Network.frw[2].wlan[0].mac.dcf.channelAccess.pendingQueue queueingTime:vector ETV
attr interpolationmode none
attr source queueingTime(packetPopped)
attr title "queueing times, vector"
attr unit s
vector 62 Network.frw[2].wlan[0].mac.dcf.channelAccess.inProgressFrames queueLength:vector ETV
attr interpolationmode sample-hold
attr source "count(packetEnqueued) - count(packetDequeued)"
attr title "queue length, vector"
vector 63 Network.frw[2].wlan[0].mac.dcf frameSequenceActive:vector ETV
attr interpolationmode sample-hold
attr source count(frameSequenceStarted)-count(frameSequenceFinished)
attr title "frame sequence active, vector"
vector 64 Network.frw[2].wlan[0].mac.rx nav:vector ETV
attr interpolationmode linear
attr source navChanged
attr title "network allocation vector, vector"
vector 65 Network.frw[2].wlan[0].mac.dcf packetSentToPeerWithRetry:vector(packetBytes) ETV
attr interpolationmode none
attr source ieee80211Retry(packetSentToPeer)
attr title "packets sent: with retry, vector(packetBytes)"
vector 66 Network.frw[2].wlan[0].mac.dcf.channelAccess.inProgressFrames queueingTime:vector ETV
attr interpolationmode none
attr source queueingTime(packetDequeued)
attr title "queueing times, vector"
vector 67 Network.frw[2].wlan[0].mac.dcf packetDrop:vector(packetBytes) ETV
attr interpolationmode none
attr source packetDropped
attr title "packet drops, vector(packetBytes)"
vector 68 Network.frw[2].wlan[0].mac.dcf packetDropRetryLimitReached:vector(packetBytes) ETV
attr interpolationmode none
attr source packetDropReasonIsRetryLimitReached(packetDropped)
attr title "packet drops: retry limit reached, vector(packetBytes)"
vector 69 Network.frw[2].wlan[0].mac packetDrop:vector(packetBytes) ETV
attr interpolationmode none
attr source packetDropped
attr title "packet drops, vector(packetBytes)"
vector 70 Network.frw[2].wlan[0].mac packetDropRetryLimitReached:vector(packetBytes) ETV
attr interpolationmode none
attr source packetDropReasonIsRetryLimitReached(packetDropped)
attr title "packet drops: retry limit reached, vector(packetBytes)"
vector 71 Network.frw[2].wlan[0].mac.dcf packetReceivedFromPeerWithoutRetry:vector(packetBytes) ETV
attr interpolationmode none
attr source ieee80211NotRetry(packetReceivedFromPeer)
attr title "packets received: without retry, vector(packetBytes)"
vector 72 Network.tx[0].wlan[0].mac packetReceivedFromLower:vector(packetBytes) ETV
attr interpolationmode none
attr title "packets received from lower layer, vector(packetBytes)"
vector 73 Network.tx[0].wlan[0].mac.dcf packetReceivedFromPeer:vector(packetBytes) ETV
attr interpolationmode none
attr title "packets received, vector(packetBytes)"
vector 74 Network.tx[0].wlan[0].mac.dcf packetReceivedFromPeerUnicast:vector(packetBytes) ETV
attr interpolationmode none
attr source ieee80211Unicast(packetReceivedFromPeer)
attr title "packets received: unicast, vector(packetBytes)"
vector 75 Network.tx[0].wlan[0].mac.dcf packetReceivedFromPeerWithoutRetry:vector(packetBytes) ETV
attr interpolationmode none
attr source ieee80211NotRetry(packetReceivedFromPeer)
attr title "packets received: without retry, vector(packetBytes)"
vector 76 Network.frw[2].wlan[0].mac.dcf.recipientMacDataService packetDropDuplicateDetected:vector(packetBytes) ETV
attr interpolationmode none
attr source packetDropReasonIsDuplicateDetected(packetDropped)
attr title "packet drops: duplicate detected, vector(packetBytes)"
vector 77 Network.frw[2].wlan[0].mac packetDropDuplicateDetected:vector(packetBytes) ETV
attr interpolationmode none
attr source packetDropReasonIsDuplicateDetected(packetDropped)
attr title "packet drops: duplicate detected, vector(packetBytes)"
vector 78 Network.tx[0].wlan[0].mac.dcf packetDropNotAddressedToUs:vector(packetBytes) ETV
attr interpolationmode none
attr source packetDropReasonIsNotAddressedToUs(packetDropped)
attr title "packet drops: not addressed to us, vector(packetBytes)"
vector 79 Network.tx[0].wlan[0].mac packetDropNotAddressedToUs:vector(packetBytes) ETV
attr interpolationmode none
attr source packetDropReasonIsNotAddressedToUs(packetDropped)
attr title "packet drops: not addressed to us, vector(packetBytes)"
0	0	0	0
0	0	0	0
0	0	0	2
0	17	0.005488135023	3
0	24	0.005570135023	2
0	33	0.006664135023	3
0	40	0.006746135023	2
0	49	0.008880135023	3
0	56	0.008962135023	2
0	65	0.010496135023	3
0	72	0.010578135023	2
0	84	0.019292135023	3
0	91	0.019374135023	2
0	101	0.022408135023	3
0	108	0.022490135023	2
0	119	0.033444135023	3
0	126	0.033526135023	2
0	143	0.105488135023	3
0	150	0.105570135023	2
0	159	0.106004135023	3
0	166	0.106086135023	2
0	175	0.107480135023	3
0	182	0.107562135023	2
0	191	0.109296135023	3
0	198	0.109378135023	2
0	207	0.111152135023	3
0	214	0.111234135023	2
0	228	0.130768135023	3
0	235	0.130850135023	2
0	245	0.146764135023	3
0	252	0.146846135023	2
0	269	0.205488135023	3
0	276	0.205570135023	2
0	286	0.221984135023	3
0	293	0.222066135023	2
0	302	0.226180135023	3
0	309	0.226262135023	2
0	320	0.240336135023	3
0	327	0.240418135023	2
0	337	0.252392135023	3
0	344	0.252474135023	2
0	353	0.253728135023	3
0	360	0.253810135023	2
0	369	0.260044135023	3
0	376	0.260126135023	2
0	395	0.305488135023	3
0	402	0.305570135023	2
0	411	0.307544135023	3
0	418	0.307626135023	2
0	429	0.324520135023	3
0	436	0.324602135023	2
0	446	0.341976135023	3
0	453	0.342058135023	2
0	463	0.354572135023	3
0	470	0.354654135023	2
0	479	0.364028135023	3
0	486	0.364110135023	2
0	497	0.382764135023	3
0	504	0.382846135023	2
0	521	0.405488135023	3
0	528	0.405570135023	2
0	537	0.408984135023	3
0	544	0.409066135023	2
0	554	0.416780135023	3
0	561	0.416862135023	2
0	571	0.422776135023	3
0	578	0.422858135023	2
0	589	0.435272135023	3
0	596	0.435354135023	2
0	605	0.445208135023	3
0	612	0.445290135023	2
0	622	0.448344135023	3
0	629	0.448426135023	2
0	647	0.505488135023	3
0	654	0.505570135023	2
0	664	0.516444135023	3
0	671	0.516526135023	2
0	681	0.535220135023	3
0	688	0.535302135023	2
0	697	0.541196135023	3
0	704	0.541278135023	2
0	713	0.543952135023	3
0	720	0.544034135023	2
0	730	0.547648135023	3
0	737	0.547730135023	2
0	749	0.562884135023	3
0	756	0.562966135023	2
0	773	0.605488135023	3
0	780	0.605570135023	2
0	790	0.616684135023	3
0	797	0.616766135023	2
0	806	0.617720135023	3
0	813	0.617802135023	2
0	824	0.627856135023	3
0	831	0.627938135023	2
0	841	0.645952135023	3
0	848	0.646034135023	2
0	857	0.649948135023	3
0	864	0.650030135023	2
0	873	0.651864135023	3
0	880	0.651946135023	2
0	899	0.705488135023	3
0	906	0.705570135023	2
0	916	0.721304135023	3
0	923	0.721386135023	2
0	933	0.733380135023	3
0	940	0.733462135023	2
0	949	0.742816135023	3
0	956	0.742898135023	2
0	967	0.759392135023	3
0	974	0.759474135023	2
0	983	0.765368135023	3
0	990	0.765450135023	2
0	1001	0.781264135023	3
0	1008	0.781346135023	2
0	1025	0.805488135023	3
0	1032	0.805570135023	2
0	1042	0.821284135023	3
0	1049	0.821366135023	2
0	1059	0.835860135023	3
0	1066	0.835942135023	2
0	1075	0.840216135023	3
0	1082	0.840298135023	2
0	1093	0.855372135023	3
0	1100	0.855454135023	2
0	1110	0.866868135023	3
0	1117	0.866950135023	2
0	1127	0.885624135023	3
0	1134	0.885706135023	2
0	1151	0.905488135023	3
0	1158	0.905570135023	2
0	1168	0.925824135023	3
0	1175	0.925906135023	2
0	1184	0.928240135023	3
0	1191	0.928322135023	2
0	1202	0.946956135023	3
0	1209	0.947038135023	2
0	1219	0.964012135023	3
0	1226	0.964094135023	2
0	1235	0.968748135023	3
0	1242	0.968830135023	2
0	1252	0.976024135023	3
0	1259	0.976106135023	2
0	1277	1.005488135023	3
0	1284	1.005570135023	2
0	1294	1.024244135023	3
0	1301	1.024326135023	2
0	1310	1.028680135023	3
0	1317	1.028762135023	2
0	1326	1.033976135023	3
0	1333	1.034058135023	2
0	1345	1.054092135023	3
0	1352	1.054174135023	2
0	1361	1.056048135023	3
0	1368	1.056130135023	2
0	1379	1.070584135023	3
0	1386	1.070666135023	2
0	1403	1.105488135023	3
0	1410	1.105570135023	2
0	1420	1.124484135023	3
0	1427	1.124566135023	2
0	1437	1.134620135023	3
0	1444	1.134702135023	2
0	1454	1.153816135023	3
0	1461	1.153898135023	2
0	1471	1.173952135023	3
0	1478	1.174034135023	2
0	1487	1.182008135023	3
0	1494	1.182090135023	2
0	1505	1.192724135023	3
0	1512	1.192806135023	2
0	1529	1.209580135023	3
0	1536	1.209662135023	2
0	1545	1.214176135023	3
0	1552	1.214258135023	2
0	1563	1.229252135023	3
0	1570	1.229334135023	2
0	1579	1.232528135023	3
0	1586	1.232610135023	2
0	1595	1.232764135023	3
0	1602	1.232846135023	2
0	1614	1.250980135023	3
0	1621	1.251062135023	2
0	1630	1.258736135023	3
0	1637	1.258818135023	2
0	1655	1.305488135023	3
0	1662	1.305570135023	2
0	1671	1.314244135023	3
0	1678	1.314326135023	2
0	1688	1.322120135023	3
0	1695	1.322202135023	2
0	1706	1.338896135023	3
0	1713	1.338978135023	2
0	1722	1.341832135023	3
0	1729	1.341914135023	2
0	1738	1.345948135023	3
0	1745	1.346030135023	2
0	1756	1.352624135023	3
0	1763	1.352706135023	2
0	1781	1.405488135023	3
0	1788	1.405570135023	2
0	1798	1.424244135023	3
0	1805	1.424326135023	2
0	1814	1.426720135023	3
0	1821	1.426802135023	2
0	1832	1.439336135023	3
0	1839	1.439418135023	2
0	1848	1.440472135023	3
0	1855	1.440554135023	2
0	1866	1.451868135023	3
0	1873	1.451950135023	2
0	1882	1.461844135023	3
0	1889	1.461926135023	2
0	1907	1.505488135023	3
0	1914	1.505570135023	2
0	1924	1.522804135023	3
0	1931	1.522886135023	2
0	1941	1.535300135023	3
0	1948	1.535382135023	2
0	1957	1.539816135023	3
0	1964	1.539898135023	2
0	1974	1.548172135023	3
0	1981	1.548254135023	2
0	1991	1.551788135023	3
0	1998	1.551870135023	2
0	2009	1.569304135023	3
0	2016	1.569386135023	2
0	2033	1.605488135023	3
0	2040	1.605570135023	2
0	2049	1.608024135023	3
0	2056	1.608106135023	2
0	2067	1.626060135023	3
0	2074	1.626142135023	2
0	2084	1.640036135023	3
0	2091	1.640118135023	2
0	2101	1.652772135023	3
0	2108	1.652854135023	2
0	2118	1.664708135023	3
0	2125	1.664790135023	2
0	2134	1.666984135023	3
0	2141	1.667066135023	2
0	2159	1.705488135023	3
0	2166	1.705570135023	2
0	2175	1.711424135023	3
0	2182	1.711506135023	2
0	2191	1.714600135023	3
0	2198	1.714682135023	2
0	2209	1.723976135023	3
0	2216	1.724058135023	2
0	2226	1.732412135023	3
0	2233	1.732494135023	2
0	2243	1.735468135023	3
0	2250	1.735550135023	2
0	2261	1.754684135023	3
0	2268	1.754766135023	2
0	2285	1.805488135023	3
0	2292	1.805570135023	2
0	2301	1.812984135023	3
0	2308	1.813066135023	2
0	2319	1.824340135023	3
0	2326	1.824422135023	2
0	2335	1.830316135023	3
0	2342	1.830398135023	2
0	2351	1.831852135023	3
0	2358	1.831934135023	2
0	2368	1.835968135023	3
0	2375	1.836050135023	2
0	2387	1.846224135023	3
0	2394	1.846306135023	2
0	2411	1.905488135023	3
0	2418	1.905570135023	2
0	2427	1.909424135023	3
0	2434	1.909506135023	2
0	2445	1.921720135023	3
0	2452	1.921802135023	2
0	2462	1.932056135023	3
0	2469	1.932138135023	2
0	2478	1.940432135023	3
0	2485	1.940514135023	2
0	2496	1.958868135023	3
0	2503	1.958950135023	2
0	2513	1.974844135023	3
0	2520	1.974926135023	2
0	2537	2.005488135023	3
0	2544	2.005570135023	2
0	2553	2.010944135023	3
0	2560	2.011026135023	2
0	2571	2.024640135023	3
0	2578	2.024722135023	2
0	2587	2.032216135023	3
0	2594	2.032298135023	2
0	2605	2.050372135023	3
0	2612	2.050454135023	2
0	2622	2.062748135023	3
0	2629	2.062830135023	2
0	2638	2.067804135023	3
0	2645	2.067886135023	2
0	2663	2.105488135023	3
0	2670	2.105570135023	2
0	2680	2.121144135023	3
0	2687	2.121226135023	2
0	2697	2.136740135023	3
0	2704	2.136822135023	2
0	2714	2.152576135023	3
0	2721	2.152658135023	2
0	2731	2.167972135023	3
0	2738	2.168054135023	2
0	2747	2.174368135023	3
0	2754	2.174450135023	2
0	2764	2.178244135023	3
0	2771	2.178326135023	2
0	2789	2.205488135023	3
0	2796	2.205570135023	2
0	2805	2.207724135023	3
0	2812	2.207806135023	2
0	2823	2.222460135023	3
0	2830	2.222542135023	2
0	2839	2.231416135023	3
0	2846	2.231498135023	2
0	2857	2.243392135023	3
0	2864	2.243474135023	2
0	2874	2.258548135023	3
0	2881	2.258630135023	2
0	2890	2.262164135023	3
0	2897	2.262246135023	2
0	2915	2.305488135023	3
0	2922	2.305570135023	2
0	2932	2.322044135023	3
0	2939	2.322126135023	2
0	2948	2.322640135023	3
0	2955	2.322722135023	2
0	2966	2.343196135023	3
0	2973	2.343278135023	2
0	2982	2.349032135023	3
0	2989	2.349114135023	2
0	3000	2.368688135023	3
0	3007	2.368770135023	2
0	3017	2.384524135023	3
0	3024	2.384606135023	2
0	3041	2.405488135023	3
0	3048	2.405570135023	2
0	3057	2.415144135023	3
0	3064	2.415226135023	2
0	3074	2.420040135023	3
0	3081	2.420122135023	2
0	3092	2.436256135023	3
0	3099	2.436338135023	2
0	3109	2.453852135023	3
0	3116	2.453934135023	2
0	3126	2.466288135023	3
0	3133	2.466370135023	2
0	3142	2.476004135023	3
0	3149	2.476086135023	2
0	3167	2.505488135023	3
0	3174	2.505570135023	2
0	3184	2.518804135023	3
0	3191	2.518886135023	2
0	3201	2.531860135023	3
0	3208	2.531942135023	2
0	3218	2.547176135023	3
0	3225	2.547258135023	2
0	3234	2.547512135023	3
0	3241	2.547594135023	2
0	3252	2.567228135023	3
0	3259	2.567310135023	2
0	3269	2.585564135023	3
0	3276	2.585646135023	2
0	3293	2.605488135023	3
0	3300	2.605570135023	2
0	3310	2.625104135023	3
0	3317	2.625186135023	2
0	3326	2.634600135023	3
0	3333	2.634682135023	2
0	3343	2.638476135023	3
0	3350	2.638558135023	2
0	3361	2.648632135023	3
0	3368	2.648714135023	2
0	3377	2.657368135023	3
0	3384	2.657450135023	2
0	3395	2.673484135023	3
0	3402	2.673566135023	2
0	3419	2.705488135023	3
0	3426	2.705570135023	2
0	3436	2.721504135023	3
0	3443	2.721586135023	2
0	3453	2.736940135023	3
0	3460	2.737022135023	2
0	3469	2.746496135023	3
0	3476	2.746578135023	2
0	3486	2.755072135023	3
0	3493	2.755154135023	2
0	3502	2.756548135023	3
0	3510	2.756630135023	2
0	3521	2.769704135023	3
0	3528	2.769786135023	2
0	3545	2.805488135023	3
0	3552	2.805570135023	2
0	3562	2.819584135023	3
0	3569	2.819666135023	2
0	3579	2.830740135023	3
0	3586	2.830822135023	2
0	3596	2.846976135023	3
0	3603	2.847058135023	2
0	3613	2.864052135023	3
0	3620	2.864134135023	2
0	3629	2.867428135023	3
0	3636	2.867510135023	2
0	3647	2.887644135023	3
0	3654	2.887726135023	2
0	3671	2.905488135023	3
0	3678	2.905570135023	2
0	3688	2.925544135023	3
0	3695	2.925626135023	2
0	3704	2.933260135023	3
0	3711	2.933342135023	2
0	3722	2.947936135023	3
0	3729	2.948018135023	2
0	3739	2.967812135023	3
0	3746	2.967894135023	2
0	3755	2.969988135023	3
0	3762	2.970070135023	2
0	3771	2.976184135023	3
0	3778	2.976266135023	2
0	3797	3.005488135023	3
0	3804	3.005570135023	2
0	3813	3.011264135023	3
0	3820	3.011346135023	2
0	3830	3.018920135023	3
0	3837	3.019002135023	2
0	3848	3.036676135023	3
0	3855	3.036758135023	2
0	3865	3.055072135023	3
0	3872	3.055154135023	2
0	3881	3.058928135023	3
0	3888	3.059010135023	2
0	3898	3.068444135023	3
0	3905	3.068526135023	2
0	3923	3.105488135023	3
0	3930	3.105570135023	2
0	3940	3.118964135023	3
0	3947	3.119046135023	2
0	3957	3.133420135023	3
0	3964	3.133502135023	2
0	3973	3.137216135023	3
0	3980	3.137298135023	2
0	3991	3.150032135023	3
0	3998	3.150114135023	2
0	4008	3.170228135023	3
0	4015	3.170310135023	2
0	4024	3.179144135023	3
0	4031	3.179226135023	2
0	4049	3.205488135023	3
0	4056	3.205570135023	2
0	4065	3.212664135023	3
0	4072	3.212746135023	2
0	4082	3.221160135023	3
0	4089	3.221242135023	2
0	4099	3.229756135023	3
0	4106	3.229838135023	2
0	4116	3.231792135023	3
0	4123	3.231874135023	2
0	4134	3.247168135023	3
0	4141	3.247250135023	2
0	4151	3.259144135023	3
0	4158	3.259226135023	2
0	4175	3.305488135023	3
0	4182	3.305570135023	2
0	4192	3.318124135023	3
0	4199	3.318206135023	2
0	4208	3.320060135023	3
0	4215	3.320142135023	2
0	4224	3.324316135023	3
0	4231	3.324398135023	2
0	4242	3.332712135023	3
0	4249	3.332794135023	2
0	4259	3.336288135023	3
0	4266	3.336370135023	2
0	4277	3.350364135023	3
0	4284	3.350446135023	2
0	4301	3.405488135023	3
0	4308	3.405570135023	2
0	4318	3.418704135023	3
0	4325	3.418786135023	2
0	4334	3.425660135023	3
0	4341	3.425742135023	2
0	4351	3.431796135023	3
0	4358	3.431878135023	2
0	4369	3.443172135023	3
0	4376	3.443254135023	2
0	4385	3.449768135023	3
0	4392	3.449850135023	2
0	4402	3.459624135023	3
0	4409	3.459706135023	2
0	4427	3.505488135023	3
0	4434	3.505570135023	2
0	4444	3.522364135023	3
0	4451	3.522446135023	2
0	4461	3.536720135023	3
0	4468	3.536802135023	2
0	4478	3.549796135023	3
0	4485	3.549878135023	2
0	4494	3.552012135023	3
0	4501	3.552094135023	2
0	4511	3.560648135023	3
0	4518	3.560730135023	2
0	4528	3.565324135023	3
0	4535	3.565406135023	2
0	4553	3.605488135023	3
0	4560	3.605570135023	2
0	4569	3.615124135023	3
0	4576	3.615206135023	2
0	4587	3.626060135023	3
0	4594	3.626142135023	2
0	4603	3.631056135023	3
0	4610	3.631138135023	2
0	4621	3.650972135023	3
0	4628	3.651054135023	2
0	4637	3.658288135023	3
0	4644	3.658370135023	2
0	4655	3.678264135023	3
0	4662	3.678346135023	2
0	4679	3.705488135023	3
0	4686	3.705570135023	2
0	4695	3.708084135023	3
0	4702	3.708166135023	2
0	4713	3.718740135023	3
0	4720	3.718822135023	2
0	4729	3.728036135023	3
0	4736	3.728118135023	2
0	4747	3.738692135023	3
0	4754	3.738774135023	2
0	4763	3.743548135023	3
0	4770	3.743630135023	2
0	4779	3.745744135023	3
0	4786	3.745826135023	2
0	4805	3.805488135023	3
0	4812	3.805570135023	2
0	4822	3.817384135023	3
0	4829	3.817466135023	2
0	4839	3.828000135023	3
0	4846	3.828082135023	2
0	4856	3.848536135023	3
0	4863	3.848618135023	2
0	4873	3.859012135023	3
0	4880	3.859094135023	2
0	4890	3.870628135023	3
0	4897	3.870710135023	2
0	4906	3.877684135023	3
0	4913	3.877766135023	2
0	4931	3.905488135023	3
0	4938	3.905570135023	2
0	4948	3.921484135023	3
0	4955	3.921566135023	2
0	4965	3.940600135023	3
0	4972	3.940682135023	2
0	4982	3.956736135023	3
0	4989	3.956818135023	2
0	4998	3.964212135023	3
0	5005	3.964294135023	2
0	5014	3.966508135023	3
0	5021	3.966590135023	2
0	5033	3.982904135023	3
0	5040	3.982986135023	2
0	5057	4.005488135023	3
0	5064	4.005570135023	2
0	5073	4.009624135023	3
0	5080	4.009706135023	2
0	5091	4.026480135023	3
0	5098	4.026562135023	2
0	5108	4.044496135023	3
0	5115	4.044578135023	2
0	5125	4.054972135023	3
0	5132	4.055054135023	2
0	5142	4.074708135023	3
0	5149	4.074790135023	2
0	5158	4.078824135023	3
0	5165	4.078906135023	2
0	5183	4.105488135023	3
0	5190	4.105570135023	2
0	5200	4.122164135023	3
0	5207	4.122246135023	2
0	5216	4.125720135023	3
0	5223	4.125802135023	2
0	5234	4.136956135023	3
0	5241	4.137038135023	2
0	5251	4.153332135023	3
0	5258	4.153414135023	2
0	5267	4.153828135023	3
0	5274	4.153910135023	2
0	5285	4.170464135023	3
0	5292	4.170546135023	2
0	5309	4.205488135023	3
0	5316	4.205570135023	2
0	5326	4.220204135023	3
0	5333	4.220286135023	2
0	5342	4.229200135023	3
0	5349	4.229282135023	2
0	5359	4.238856135023	3
0	5366	4.238938135023	2
0	5377	4.249852135023	3
0	5384	4.249934135023	2
0	5394	4.263328135023	3
0	5401	4.263410135023	2
0	5410	4.266124135023	3
0	5417	4.266206135023	2
0	5435	4.305488135023	3
0	5442	4.305570135023	2
0	5451	4.315424135023	3
0	5458	4.315506135023	2
0	5468	4.315720135023	3
0	5475	4.315802135023	2
0	5486	4.325956135023	3
0	5493	4.326038135023	2
0	5502	4.335452135023	3
0	5509	4.335534135023	2
0	5519	4.344588135023	3
0	5526	4.344670135023	2
0	5537	4.357784135023	3
0	5544	4.357866135023	2
0	5561	4.405488135023	3
0	5568	4.405570135023	2
0	5578	4.422884135023	3
0	5585	4.422966135023	2
0	5595	4.438760135023	3
0	5602	4.438842135023	2
0	5611	4.440196135023	3
0	5618	4.440278135023	2
0	5629	4.460392135023	3
0	5636	4.460474135023	2
0	5645	4.464068135023	3
0	5652	4.464150135023	2
0	5663	4.479684135023	3
0	5670	4.479766135023	2
0	5687	4.505488135023	3
0	5694	4.505570135023	2
0	5703	4.512904135023	3
0	5710	4.512986135023	2
0	5721	4.523380135023	3
0	5728	4.523462135023	2
0	5738	4.543476135023	3
0	5745	4.543558135023	2
0	5754	4.547712135023	3
0	5761	4.547794135023	2
0	5770	4.550548135023	3
0	5777	4.550630135023	2
0	5787	4.557044135023	3
0	5794	4.557126135023	2
0	5813	4.605488135023	3
0	5820	4.605570135023	2
0	5830	4.619464135023	3
0	5837	4.619546135023	2
0	5847	4.638920135023	3
0	5854	4.639002135023	2
0	5864	4.651556135023	3
0	5871	4.651638135023	2
0	5881	4.667432135023	3
0	5888	4.667514135023	2
0	5897	4.675108135023	3
0	5904	4.675190135023	2
0	5913	4.675384135023	3
0	5920	4.675466135023	2
0	5939	4.705488135023	3
0	5946	4.705570135023	2
0	5955	4.707664135023	3
0	5962	4.707746135023	2
0	5973	4.722840135023	3
0	5980	4.722922135023	2
0	5989	4.725416135023	3
0	5996	4.725498135023	2
0	6007	4.743752135023	3
0	6014	4.743834135023	2
0	6023	4.743948135023	3
0	6030	4.744030135023	2
0	6041	4.764124135023	3
0	6048	4.764206135023	2
0	6065	4.805488135023	3
0	6072	4.805570135023	2
0	6082	4.825364135023	3
0	6089	4.825446135023	2
0	6099	4.840220135023	3
0	6106	4.840302135023	2
0	6116	4.854256135023	3
0	6123	4.854338135023	2
0	6133	4.865072135023	3
0	6140	4.865154135023	2
0	6150	4.878228135023	3
0	6157	4.878310135023	2
0	6166	4.886684135023	3
0	6173	4.886766135023	2
0	6191	4.905488135023	3
0	6198	4.905570135023	2
0	6207	4.906444135023	3
0	6214	4.906526135023	2
0	6223	4.910760135023	3
0	6230	4.910842135023	2
0	6242	4.927376135023	3
0	6249	4.927458135023	2
0	6258	4.935412135023	3
0	6265	4.935494135023	2
0	6275	4.938048135023	3
0	6282	4.938130135023	2
0	6293	4.948704135023	3
0	6300	4.948786135023	2
0	6317	5.005488135023	3
0	6324	5.005570135023	2
0	6333	5.014224135023	3
0	6340	5.014306135023	2
0	6351	5.034260135023	3
0	6358	5.034342135023	2
0	6367	5.041436135023	3
0	6374	5.041518135023	2
0	6385	5.060112135023	3
0	6392	5.060194135023	2
0	6401	5.064028135023	3
0	6408	5.064110135023	2
0	6419	5.080304135023	3
0	6426	5.080386135023	2
0	6443	5.105488135023	3
0	6450	5.105570135023	2
0	6459	5.106684135023	3
0	6466	5.106766135023	2
0	6475	5.109140135023	3
0	6482	5.109222135023	2
0	6494	5.125556135023	3
0	6501	5.125638135023	2
0	6511	5.144592135023	3
0	6518	5.144674135023	2
0	6527	5.145708135023	3
0	6534	5.145790135023	2
0	6543	5.148824135023	3
0	6550	5.148906135023	2
0	6569	5.205488135023	3
0	6576	5.205570135023	2
0	6586	5.215864135023	3
0	6593	5.215946135023	2
0	6603	5.229900135023	3
0	6610	5.229982135023	2
0	6619	5.235696135023	3
0	6626	5.235778135023	2
0	6635	5.238012135023	3
0	6642	5.238094135023	2
0	6654	5.257048135023	3
0	6661	5.257130135023	2
0	6671	5.272544135023	3
0	6678	5.272626135023	2
0	6695	5.305488135023	3
0	6702	5.305570135023	2
0	6712	5.318984135023	3
0	6719	5.319066135023	2
0	6729	5.332500135023	3
0	6736	5.332582135023	2
0	6746	5.352656135023	3
0	6753	5.352738135023	2
0	6762	5.355932135023	3
0	6769	5.356014135023	2
0	6778	5.362388135023	3
0	6785	5.362470135023	2
0	6796	5.368204135023	3
0	6803	5.368286135023	2
0	6821	5.405488135023	3
0	6828	5.405570135023	2
0	6837	5.408304135023	3
0	6844	5.408386135023	2
0	6854	5.415740135023	3
0	6861	5.415822135023	2
0	6871	5.418816135023	3
0	6878	5.418898135023	2
0	6888	5.426832135023	3
0	6895	5.426914135023	2
0	6906	5.444208135023	3
0	6913	5.444290135023	2
0	6923	5.457384135023	3
0	6930	5.457466135023	2
0	6947	5.505488135023	3
0	6954	5.505570135023	2
0	6964	5.517424135023	3
0	6971	5.517506135023	2
0	6981	5.534140135023	3
0	6988	5.534222135023	2
0	6997	5.541736135023	3
0	7004	5.541818135023	2
0	7015	5.561452135023	3
0	7022	5.561534135023	2
0	7032	5.574008135023	3
0	7039	5.574090135023	2
0	7049	5.590584135023	3
0	7056	5.590666135023	2
0	7073	5.609840135023	3
0	7080	5.609922135023	2
0	7089	5.612916135023	3
0	7096	5.612998135023	2
0	7107	5.624412135023	3
0	7114	5.624494135023	2
0	7123	5.628028135023	3
0	7130	5.628110135023	2
0	7141	5.638464135023	3
0	7148	5.638546135023	2
0	7158	5.658540135023	3
0	7165	5.658622135023	2
0	7175	5.669076135023	3
0	7182	5.669158135023	2
0	7199	5.705488135023	3
0	7206	5.705570135023	2
0	7215	5.705924135023	3
0	7222	5.706006135023	2
0	7231	5.709460135023	3
0	7238	5.709542135023	2
0	7250	5.725116135023	3
0	7257	5.725198135023	2
0	7267	5.737812135023	3
0	7274	5.737894135023	2
0	7283	5.745228135023	3
0	7290	5.745310135023	2
0	7301	5.758504135023	3
0	7308	5.758586135023	2
0	7325	5.805488135023	3
0	7332	5.805570135023	2
0	7342	5.822384135023	3
0	7349	5.822466135023	2
0	7358	5.826760135023	3
0	7365	5.826842135023	2
0	7374	5.830156135023	3
0	7381	5.830238135023	2
0	7393	5.850772135023	3
0	7400	5.850854135023	2
0	7409	5.858568135023	3
0	7416	5.858650135023	2
0	7427	5.875484135023	3
0	7434	5.875566135023	2
0	7451	5.905488135023	3
0	7458	5.905570135023	2
0	7467	5.911544135023	3
0	7474	5.911626135023	2
0	7485	5.925200135023	3
0	7492	5.925282135023	2
0	7502	5.945756135023	3
0	7509	5.945838135023	2
0	7518	5.951672135023	3
0	7525	5.951754135023	2
0	7534	5.952088135023	3
0	7541	5.952170135023	2
0	7550	5.955244135023	3
0	7557	5.955326135023	2
0	7577	6.005488135023	3
0	7584	6.005570135023	2
0	7593	6.012384135023	3
0	7600	6.012466135023	2
0	7610	6.019560135023	3
0	7617	6.019642135023	2
0	7628	6.034656135023	3
0	7635	6.034738135023	2
0	7645	6.053052135023	3
0	7652	6.053134135023	2
0	7662	6.071548135023	3
0	7669	6.071630135023	2
0	7678	6.078284135023	3
0	7685	6.078366135023	2
0	7703	6.105488135023	3
0	7710	6.105570135023	2
0	7719	6.114264135023	3
0	7726	6.114346135023	2
0	7737	6.131920135023	3
0	7744	6.132002135023	2
0	7754	6.148376135023	3
0	7761	6.148458135023	2
0	7770	6.151712135023	3
0	7777	6.151794135023	2
0	7788	6.165468135023	3
0	7795	6.165550135023	2
0	7805	6.182564135023	3
0	7812	6.182646135023	2
0	7829	6.205488135023	3
0	7836	6.205570135023	2
0	7846	6.220264135023	3
0	7853	6.220346135023	2
0	7863	6.233100135023	3
0	7870	6.233182135023	2
0	7880	6.248736135023	3
0	7887	6.248818135023	2
0	7897	6.258852135023	3
0	7904	6.258934135023	2
0	7914	6.272448135023	3
0	7921	6.272530135023	2
0	7930	6.276644135023	3
0	7937	6.276726135023	2
0	7955	6.305488135023	3
0	7962	6.305570135023	2
0	7971	6.314044135023	3
0	7978	6.314126135023	2
0	7987	6.314800135023	3
0	7994	6.314882135023	2
0	8006	6.334956135023	3
0	8013	6.335038135023	2
0	8022	6.343892135023	3
0	8029	6.343974135023	2
0	8040	6.358708135023	3
0	8047	6.358790135023	2
0	8056	6.364344135023	3
0	8063	6.364426135023	2
0	8081	6.405488135023	3
0	8088	6.405570135023	2
0	8098	6.421944135023	3
0	8105	6.422026135023	2
0	8114	6.427960135023	3
0	8121	6.428042135023	2
0	8132	6.445716135023	3
0	8139	6.445798135023	2
0	8148	6.452972135023	3
0	8155	6.453054135023	2
0	8166	6.473608135023	3
0	8173	6.473690135023	2
0	8183	6.487184135023	3
0	8190	6.487266135023	2
0	8207	6.505488135023	3
0	8214	6.505570135023	2
0	8224	6.519884135023	3
0	8231	6.519966135023	2
0	8241	6.535780135023	3
0	8248	6.535862135023	2
0	8258	6.551376135023	3
0	8265	6.551458135023	2
0	8275	6.568072135023	3
0	8282	6.568154135023	2
0	8291	6.573328135023	3
0	8298	6.573410135023	2
0	8307	6.575284135023	3
0	8314	6.575366135023	2
0	8333	6.605488135023	3
0	8340	6.605570135023	2
0	8349	6.613604135023	3
0	8356	6.613686135023	2
0	8366	6.618680135023	3
0	8373	6.618762135023	2
0	8384	6.635496135023	3
0	8391	6.635578135023	2
0	8400	6.637312135023	3
0	8407	6.637394135023	2
0	8418	6.652908135023	3
0	8425	6.652990135023	2
0	8435	6.672824135023	3
0	8442	6.672906135023	2
0	8459	6.705488135023	3
0	8466	6.705570135023	2
0	8476	6.718664135023	3
0	8483	6.718746135023	2
0	8493	6.735000135023	3
0	8500	6.735082135023	2
0	8510	6.745416135023	3
0	8517	6.745498135023	2
0	8527	6.760472135023	3
0	8534	6.760554135023	2
0	8543	6.769348135023	3
0	8550	6.769430135023	2
0	8561	6.783384135023	3
0	8568	6.783466135023	2
0	8585	6.805488135023	3
0	8592	6.805570135023	2
0	8601	6.808764135023	3
0	8608	6.808846135023	2
0	8619	6.829380135023	3
0	8626	6.829462135023	2
0	8635	6.839076135023	3
0	8642	6.839158135023	2
0	8653	6.857192135023	3
0	8660	6.857274135023	2
0	8669	6.859568135023	3
0	8676	6.859650135023	2
0	8685	6.860444135023	3
0	8692	6.860526135023	2
0	8711	6.905488135023	3
0	8718	6.905570135023	2
0	8728	6.919044135023	3
0	8735	6.919126135023	2
0	8744	6.920800135023	3
0	8751	6.920882135023	2
0	8760	6.928336135023	3
0	8767	6.928418135023	2
0	8778	6.934872135023	3
0	8785	6.934954135023	2
0	8795	6.941248135023	3
0	8802	6.941330135023	2
0	8813	6.960724135023	3
0	8820	6.960806135023	2
0	8837	7.005488135023	3
0	8844	7.005570135023	2
0	8854	7.020064135023	3
0	8861	7.020146135023	2
0	8870	7.021360135023	3
0	8877	7.021442135023	2
0	8886	7.030076135023	3
0	8894	7.030158135023	2
0	8905	7.046212135023	3
0	8912	7.046294135023	2
0	8921	7.055608135023	3
0	8928	7.055690135023	2
0	8939	7.075784135023	3
0	8946	7.075866135023	2
0	8963	7.105488135023	3
0	8970	7.105570135023	2
0	8979	7.113904135023	3
0	8986	7.113986135023	2
0	8997	7.129960135023	3
0	9004	7.130042135023	2
0	9014	7.147196135023	3
0	9021	7.147278135023	2
0	9030	7.155132135023	3
0	9037	7.155214135023	2
0	9048	7.170168135023	3
0	9055	7.170250135023	2
0	9064	7.172444135023	3
0	9071	7.172526135023	2
0	9089	7.205488135023	3
0	9096	7.205570135023	2
0	9105	7.206224135023	3
0	9112	7.206306135023	2
0	9123	7.223380135023	3
0	9130	7.223462135023	2
0	9140	7.235056135023	3
0	9147	7.235138135023	2
0	9157	7.247752135023	3
0	9164	7.247834135023	2
0	9173	7.257108135023	3
0	9180	7.257190135023	2
0	9191	7.275564135023	3
0	9198	7.275646135023	2
0	9215	7.305488135023	3
0	9222	7.305570135023	2
0	9232	7.317544135023	3
0	9239	7.317626135023	2
0	9248	7.326740135023	3
0	9255	7.326822135023	2
0	9266	7.340416135023	3
0	9273	7.340498135023	2
0	9282	7.340792135023	3
0	9289	7.340874135023	2
0	9300	7.360608135023	3
0	9307	7.360690135023	2
0	9317	7.373724135023	3
0	9324	7.373806135023	2
0	9341	7.405488135023	3
0	9348	7.405570135023	2
0	9357	7.410564135023	3
0	9364	7.410646135023	2
0	9374	7.415960135023	3
0	9381	7.416042135023	2
0	9391	7.420816135023	3
0	9398	7.420898135023	2
0	9407	7.424312135023	3
0	9414	7.424394135023	2
0	9426	7.438088135023	3
0	9433	7.438170135023	2
0	9443	7.455784135023	3
0	9450	7.455866135023	2
0	9467	7.505488135023	3
0	9474	7.505570135023	2
0	9483	7.510804135023	3
0	9490	7.510886135023	2
0	9500	7.520700135023	3
0	9507	7.520782135023	2
0	9518	7.538476135023	3
0	9525	7.538558135023	2
0	9535	7.553672135023	3
0	9542	7.553754135023	2
0	9552	7.573488135023	3
0	9559	7.573570135023	2
0	9568	7.583204135023	3
0	9575	7.583286135023	2
0	9593	7.605488135023	3
0	9600	7.605570135023	2
0	9610	7.619424135023	3
0	9617	7.619506135023	2
0	9626	7.625400135023	3
0	9633	7.625482135023	2
0	9644	7.637196135023	3
0	9651	7.637278135023	2
0	9660	7.639652135023	3
0	9667	7.639734135023	2
0	9676	7.646088135023	3
0	9683	7.646170135023	2
0	9695	7.665344135023	3
0	9702	7.665426135023	2
0	9719	7.705488135023	3
0	9726	7.705570135023	2
0	9736	7.724664135023	3
0	9743	7.724746135023	2
0	9753	7.741940135023	3
0	9760	7.742022135023	2
0	9770	7.752176135023	3
0	9777	7.752258135023	2
0	9786	7.754632135023	3
0	9793	7.754714135023	2
0	9804	7.766588135023	3
0	9811	7.766670135023	2
0	9820	7.766764135023	3
0	9827	7.766846135023	2
0	9845	7.805488135023	3
0	9852	7.805570135023	2
0	9862	7.815764135023	3
0	9869	7.815846135023	2
0	9879	7.834140135023	3
0	9886	7.834222135023	2
0	9896	7.846936135023	3
0	9903	7.847018135023	2
0	9912	7.855492135023	3
0	9919	7.855574135023	2
0	9929	7.863528135023	3
0	9936	7.863610135023	2
0	9947	7.880604135023	3
0	9954	7.880686135023	2
0	9971	7.905488135023	3
0	9978	7.905570135023	2
0	9987	7.912364135023	3
0	9994	7.912446135023	2
0	10005	7.922960135023	3
0	10012	7.923042135023	2
0	10021	7.929616135023	3
0	10028	7.929698135023	2
0	10037	7.930772135023	3
0	10044	7.930854135023	2
0	10056	7.945908135023	3
0	10063	7.945990135023	2
0	10073	7.964844135023	3
0	10080	7.964926135023	2
0	10097	8.005488135023	3
0	10104	8.005570135023	2
0	10114	8.021544135023	3
0	10121	8.021626135023	2
0	10130	8.026840135023	3
0	10137	8.026922135023	2
0	10148	8.037056135023	3
0	10155	8.037138135023	2
0	10165	8.055752135023	3
0	10172	8.055834135023	2
0	10181	8.060908135023	3
0	10188	8.060990135023	2
0	10199	8.074464135023	3
0	10206	8.074546135023	2
0	10223	8.105488135023	3
0	10230	8.105570135023	2
0	10240	8.122624135023	3
0	10247	8.122706135023	2
0	10256	8.128660135023	3
0	10263	8.128742135023	2
0	10274	8.147076135023	3
0	10281	8.147158135023	2
0	10291	8.158652135023	3
0	10298	8.158734135023	2
0	10307	8.161628135023	3
0	10314	8.161710135023	2
0	10325	8.176024135023	3
0	10332	8.176106135023	2
0	10349	8.205488135023	3
0	10356	8.205570135023	2
0	10365	8.214804135023	3
0	10372	8.214886135023	2
0	10382	8.215740135023	3
0	10389	8.215822135023	2
0	10398	8.223896135023	3
0	10405	8.223978135023	2
0	10417	8.239992135023	3
0	10424	8.240074135023	2
0	10434	8.251548135023	3
0	10441	8.251630135023	2
0	10450	8.255784135023	3
0	10457	8.255866135023	2
0	10475	8.305488135023	3
0	10482	8.305570135023	2
0	10491	8.309844135023	3
0	10498	8.309926135023	2
0	10508	8.317780135023	3
0	10515	8.317862135023	2
0	10525	8.327136135023	3
0	10532	8.327218135023	2
0	10542	8.334592135023	3
0	10549	8.334674135023	2
0	10560	8.349368135023	3
0	10567	8.349450135023	2
0	10577	8.361044135023	3
0	10584	8.361126135023	2
0	10601	8.405488135023	3
0	10608	8.405570135023	2
0	10618	8.416064135023	3
0	10625	8.416146135023	2
0	10635	8.428820135023	3
0	10642	8.428902135023	2
0	10651	8.430696135023	3
0	10658	8.430778135023	2
0	10667	8.437712135023	3
0	10674	8.437794135023	2
0	10686	8.456228135023	3
0	10693	8.456310135023	2
0	10702	8.458464135023	3
0	10709	8.458546135023	2
0	10727	8.505488135023	3
0	10734	8.505570135023	2
0	10743	8.513744135023	3
0	10750	8.513826135023	2
0	10761	8.530140135023	3
0	10768	8.530222135023	2
0	10778	8.542376135023	3
0	10785	8.542458135023	2
0	10795	8.556612135023	3
0	10802	8.556694135023	2
0	10812	8.576788135023	3
0	10819	8.576870135023	2
0	10828	8.582644135023	3
0	10835	8.582726135023	2
0	10853	8.605488135023	3
0	10860	8.605570135023	2
0	10869	8.607304135023	3
0	10876	8.607386135023	2
0	10887	8.623600135023	3
0	10894	8.623682135023	2
0	10904	8.637836135023	3
0	10911	8.637918135023	2
0	10921	8.650612135023	3
0	10928	8.650694135023	2
0	10937	8.654428135023	3
0	10944	8.654510135023	2
0	10955	8.673044135023	3
0	10962	8.673126135023	2
0	10979	8.705488135023	3
0	10986	8.705570135023	2
0	10996	8.720844135023	3
0	11003	8.720926135023	2
0	11012	8.728580135023	3
0	11019	8.728662135023	2
0	11030	8.739476135023	3
0	11037	8.739558135023	2
0	11047	8.751712135023	3
0	11054	8.751794135023	2
0	11064	8.767608135023	3
0	11071	8.767690135023	2
0	11081	8.778784135023	3
0	11088	8.778866135023	2
0	11105	8.805488135023	3
0	11112	8.805570135023	2
0	11122	8.824264135023	3
0	11129	8.824346135023	2
0	11139	8.844100135023	3
0	11146	8.844182135023	2
0	11155	8.848576135023	3
0	11162	8.848658135023	2
0	11173	8.862832135023	3
0	11180	8.862914135023	2
0	11190	8.878848135023	3
0	11197	8.878930135023	2
0	11207	8.889764135023	3
0	11214	8.889846135023	2
0	11231	8.910280135023	3
0	11238	8.910362135023	2
0	11247	8.916356135023	3
0	11254	8.916438135023	2
0	11264	8.924692135023	3
0	11271	8.924774135023	2
0	11282	8.941448135023	3
0	11289	8.941530135023	2
0	11298	8.945744135023	3
0	11305	8.945826135023	2
0	11314	8.947900135023	3
0	11321	8.947982135023	2
0	11331	8.952216135023	3
0	11338	8.952298135023	2
0	11357	9.005488135023	3
0	11364	9.005570135023	2
0	11373	9.012384135023	3
0	11380	9.012466135023	2
0	11389	9.014160135023	3
0	11396	9.014242135023	2
0	11408	9.031876135023	3
0	11415	9.031958135023	2
0	11424	9.038152135023	3
0	11431	9.038234135023	2
0	11442	9.056868135023	3
0	11449	9.056950135023	2
0	11459	9.076644135023	3
0	11466	9.076726135023	2
0	11483	9.105488135023	3
0	11490	9.105570135023	2
0	11499	9.113044135023	3
0	11506	9.113126135023	2
0	11517	9.124840135023	3
0	11524	9.124922135023	2
0	11534	9.137136135023	3
0	11541	9.137218135023	2
0	11550	9.145712135023	3
0	11557	9.145794135023	2
0	11566	9.146328135023	3
0	11573	9.146410135023	2
0	11583	9.153304135023	3
0	11590	9.153386135023	2
0	11609	9.205488135023	3
0	11616	9.205570135023	2
0	11625	9.205844135023	3
0	11632	9.205926135023	2
0	11641	9.212120135023	3
0	11648	9.212202135023	2
0	11660	9.223876135023	3
0	11667	9.223958135023	2
0	11677	9.239012135023	3
0	11684	9.239094135023	2
0	11693	9.243768135023	3
0	11700	9.243850135023	2
0	11711	9.256544135023	3
0	11718	9.256626135023	2
0	11735	9.305488135023	3
0	11742	9.305570135023	2
0	11751	9.313384135023	3
0	11758	9.313466135023	2
0	11769	9.326000135023	3
0	11776	9.326082135023	2
0	11785	9.334596135023	3
0	11792	9.334678135023	2
0	11803	9.352332135023	3
0	11810	9.352414135023	2
0	11819	9.358128135023	3
0	11826	9.358210135023	2
0	11835	9.360824135023	3
0	11842	9.360906135023	2
0	11861	9.405488135023	3
0	11868	9.405570135023	2
0	11877	9.409744135023	3
0	11884	9.409826135023	2
0	11894	9.417080135023	3
0	11901	9.417162135023	2
0	11912	9.429916135023	3
0	11919	9.429998135023	2
0	11929	9.442692135023	3
0	11936	9.442774135023	2
0	11946	9.459948135023	3
0	11953	9.460030135023	2
0	11962	9.467604135023	3
0	11969	9.467686135023	2
0	11987	9.505488135023	3
0	11994	9.505570135023	2
0	12004	9.525444135023	3
0	12011	9.525526135023	2
0	12020	9.527040135023	3
0	12027	9.527122135023	2
0	12038	9.538476135023	3
0	12045	9.538558135023	2
0	12054	9.544712135023	3
0	12061	9.544794135023	2
0	12071	9.554108135023	3
0	12078	9.554190135023	2
0	12089	9.565564135023	3
0	12096	9.565646135023	2
0	12113	9.605488135023	3
0	12120	9.605570135023	2
0	12130	9.623104135023	3
0	12137	9.623186135023	2
0	12147	9.636620135023	3
0	12154	9.636702135023	2
0	12164	9.651476135023	3
0	12171	9.651558135023	2
0	12180	9.652352135023	3
0	12187	9.652434135023	2
0	12196	9.656868135023	3
0	12203	9.656950135023	2
0	12212	9.657784135023	3
0	12219	9.657866135023	2
0	12239	9.705488135023	3
0	12246	9.705570135023	2
0	12255	9.711144135023	3
0	12262	9.711226135023	2
0	12273	9.725000135023	3
0	12280	9.725082135023	2
0	12289	9.731036135023	3
0	12296	9.731118135023	2
0	12307	9.749052135023	3
0	12314	9.749134135023	2
0	12323	9.757468135023	3
0	12330	9.757550135023	2
0	12340	9.765644135023	3
0	12347	9.765726135023	2
0	12365	9.805488135023	3
0	12372	9.805570135023	2
0	12382	9.816864135023	3
0	12389	9.816946135023	2
0	12398	9.821120135023	3
0	12405	9.821202135023	2
0	12415	9.827496135023	3
0	12422	9.827578135023	2
0	12433	9.844352135023	3
0	12440	9.844434135023	2
0	12449	9.848388135023	3
0	12456	9.848470135023	2
0	12467	9.866824135023	3
0	12474	9.866906135023	2
0	12491	9.905488135023	3
0	12498	9.905570135023	2
0	12507	9.909364135023	3
0	12514	9.909446135023	2
0	12524	9.917740135023	3
0	12531	9.917822135023	2
0	12542	9.934536135023	3
0	12549	9.934618135023	2
0	12558	9.942132135023	3
0	12565	9.942214135023	2
0	12576	9.952228135023	3
0	12583	9.952310135023	2
0	12593	9.968044135023	3
0	12600	9.968126135023	2
0	12617	10.005488135023	3
0	12624	10.005570135023	2
0	12633	10.009984135023	3
0	12640	10.010066135023	2
0	12651	10.021920135023	3
0	12658	10.022002135023	2
0	12667	10.023236135023	3
0	12674	10.023318135023	2
0	12683	10.024412135023	3
0	12690	10.024494135023	2
0	12699	10.026928135023	3
0	12706	10.027010135023	2
0	12719	10.040564135023	3
0	12726	10.040646135023	2
0	12743	10.105488135023	3
0	12750	10.105570135023	2
0	12759	10.108524135023	3
0	12766	10.108606135023	2
0	12775	10.112300135023	3
0	12782	10.112382135023	2
0	12794	10.130356135023	3
0	12801	10.130438135023	2
0	12810	10.132432135023	3
0	12817	10.132514135023	2
0	12828	10.143748135023	3
0	12835	10.143830135023	2
0	12845	10.156904135023	3
0	12852	10.156986135023	2
0	12869	10.205488135023	3
0	12876	10.205570135023	2
0	12885	10.214764135023	3
0	12892	10.214846135023	2
0	12903	10.231000135023	3
0	12910	10.231082135023	2
0	12919	10.231356135023	3
0	12926	10.231438135023	2
0	12937	10.246012135023	3
0	12944	10.246094135023	2
0	12953	10.251548135023	3
0	12960	10.251630135023	2
0	12969	10.252084135023	3
0	12976	10.252166135023	2
0	12995	10.305488135023	3
0	13002	10.305570135023	2
0	13012	10.321064135023	3
0	13019	10.321146135023	2
0	13028	10.323040135023	3
0	13035	10.323122135023	2
0	13044	10.325256135023	3
0	13051	10.325338135023	2
0	13062	10.333832135023	3
0	13069	10.333914135023	2
0	13080	10.353808135023	3
0	13087	10.353890135023	2
0	13096	10.361064135023	3
0	13103	10.361146135023	2
0	13121	10.405488135023	3
0	13128	10.405570135023	2
0	13138	10.424944135023	3
0	13145	10.425026135023	2
0	13155	10.435980135023	3
0	13162	10.436062135023	2
0	13172	10.447276135023	3
0	13179	10.447358135023	2
0	13189	10.457852135023	3
0	13196	10.457934135023	2
0	13206	10.468588135023	3
0	13213	10.468670135023	2
0	13223	10.483404135023	3
0	13230	10.483486135023	2
0	13247	10.505488135023	3
0	13254	10.505570135023	2
0	13263	10.511944135023	3
0	13270	10.512026135023	2
0	13279	10.514540135023	3
0	13286	10.514622135023	2
0	13296	10.519756135023	3
0	13303	10.519838135023	2
0	13313	10.522572135023	3
0	13320	10.522654135023	2
0	13332	10.538108135023	3
0	13339	10.538190135023	2
0	13348	10.545264135023	3
0	13355	10.545346135023	2
0	13373	10.605488135023	3
0	13380	10.605570135023	2
0	13390	10.621544135023	3
0	13397	10.621626135023	2
0	13407	10.636980135023	3
0	13414	10.637062135023	2
0	13423	10.644476135023	3
0	13430	10.644558135023	2
0	13440	10.647232135023	3
0	13447	10.647314135023	2
0	13456	10.651488135023	3
0	13463	10.651570135023	2
0	13473	10.655244135023	3
0	13480	10.655326135023	2
0	13499	10.705488135023	3
0	13506	10.705570135023	2
0	13516	10.716004135023	3
0	13523	10.716086135023	2
0	13533	10.727000135023	3
0	13540	10.727082135023	2
0	13549	10.736576135023	3
0	13556	10.736658135023	2
0	13566	10.746572135023	3
0	13573	10.746654135023	2
0	13584	10.759908135023	3
0	13591	10.759990135023	2
0	13601	10.772784135023	3
0	13608	10.772866135023	2
0	13625	10.805488135023	3
0	13632	10.805570135023	2
0	13642	10.823324135023	3
0	13649	10.823406135023	2
0	13658	10.827480135023	3
0	13665	10.827562135023	2
0	13675	10.835796135023	3
0	13682	10.835878135023	2
0	13692	10.838452135023	3
0	13699	10.838534135023	2
0	13710	10.852768135023	3
0	13717	10.852850135023	2
0	13726	10.853224135023	3
0	13733	10.853306135023	2
0	13751	10.905488135023	3
0	13758	10.905570135023	2
0	13768	10.921524135023	3
0	13775	10.921606135023	2
0	13785	10.937760135023	3
0	13792	10.937842135023	2
0	13802	10.952896135023	3
0	13809	10.952978135023	2
0	13819	10.971712135023	3
0	13826	10.971794135023	2
0	13835	10.973748135023	3
0	13842	10.973830135023	2
0	13853	10.985284135023	3
0	13860	10.985366135023	2
0	13877	11.005488135023	3
0	13884	11.005570135023	2
0	13894	11.017644135023	3
0	13901	11.017726135023	2
0	13910	11.027140135023	3
0	13917	11.027222135023	2
0	13927	11.033136135023	3
0	13934	11.033218135023	2
0	13944	11.039052135023	3
0	13951	11.039134135023	2
0	13962	11.059688135023	3
0	13969	11.059770135023	2
0	13978	11.064584135023	3
0	13985	11.064666135023	2
0	14003	11.105488135023	3
0	14010	11.105570135023	2
0	14020	11.116424135023	3
0	14027	11.116506135023	2
0	14036	11.122100135023	3
0	14043	11.122182135023	2
0	14054	11.136696135023	3
0	14061	11.136778135023	2
0	14071	11.157332135023	3
0	14078	11.157414135023	2
0	14087	11.161268135023	3
0	14094	11.161350135023	2
0	14103	11.165444135023	3
0	14110	11.165526135023	2
0	14129	11.205488135023	3
0	14136	11.205570135023	2
0	14145	11.212524135023	3
0	14152	11.212606135023	2
0	14163	11.226200135023	3
0	14170	11.226282135023	2
0	14180	11.243456135023	3
0	14187	11.243538135023	2
0	14197	11.262412135023	3
0	14204	11.262494135023	2
0	14213	11.267628135023	3
0	14220	11.267710135023	2
0	14231	11.281304135023	3
0	14238	11.281386135023	2
0	14255	11.305488135023	3
0	14262	11.305570135023	2
0	14271	11.312724135023	3
0	14278	11.312806135023	2
0	14288	11.317640135023	3
0	14295	11.317722135023	2
0	14304	11.322296135023	3
0	14311	11.322378135023	2
0	14320	11.322572135023	3
0	14327	11.322654135023	2
0	14337	11.323628135023	3
0	14344	11.323710135023	2
0	14357	11.338524135023	3
0	14364	11.338606135023	2
0	14381	11.405488135023	3
0	14388	11.405570135023	2
0	14397	11.414184135023	3
0	14404	11.414266135023	2
0	14415	11.434580135023	3
0	14422	11.434662135023	2
0	14432	11.450636135023	3
0	14439	11.450718135023	2
0	14448	11.452632135023	3
0	14455	11.452714135023	2
0	14464	11.454348135023	3
0	14471	11.454430135023	2
0	14480	11.459824135023	3
0	14487	11.459906135023	2
0	14507	11.505488135023	3
0	14514	11.505570135023	2
0	14524	11.520324135023	3
0	14531	11.520406135023	2
0	14541	11.532180135023	3
0	14548	11.532262135023	2
0	14558	11.544336135023	3
0	14565	11.544418135023	2
0	14575	11.557812135023	3
0	14582	11.557894135023	2
0	14591	11.563988135023	3
0	14598	11.564070135023	2
0	14608	11.571164135023	3
0	14615	11.571246135023	2
0	14633	11.605488135023	3
0	14640	11.605570135023	2
0	14649	11.614884135023	3
0	14656	11.614966135023	2
0	14667	11.634560135023	3
0	14674	11.634642135023	2
0	14683	11.641336135023	3
0	14690	11.641418135023	2
0	14701	11.659132135023	3
0	14708	11.659214135023	2
0	14717	11.666648135023	3
0	14724	11.666730135023	2
0	14734	11.670824135023	3
0	14741	11.670906135023	2
0	14759	11.705488135023	3
0	14766	11.705570135023	2
0	14775	11.706864135023	3
0	14782	11.706946135023	2
0	14791	11.709160135023	3
0	14798	11.709242135023	2
0	14810	11.723916135023	3
0	14817	11.723998135023	2
0	14826	11.732332135023	3
0	14833	11.732414135023	2
0	14843	11.741648135023	3
0	14850	11.741730135023	2
0	14861	11.761804135023	3
0	14868	11.761886135023	2
0	14885	11.805488135023	3
0	14892	11.805570135023	2
0	14902	11.815924135023	3
0	14909	11.816006135023	2
0	14918	11.821740135023	3
0	14925	11.821822135023	2
0	14934	11.825396135023	3
0	14941	11.825478135023	2
0	14952	11.834612135023	3
0	14959	11.834694135023	2
0	14969	11.842848135023	3
0	14976	11.842930135023	2
0	14986	11.852224135023	3
0	14993	11.852306135023	2
0	15011	11.905488135023	3
0	15018	11.905570135023	2
0	15027	11.907664135023	3
0	15034	11.907746135023	2
0	15045	11.921840135023	3
0	15052	11.921922135023	2
0	15061	11.922216135023	3
0	15068	11.922298135023	2
0	15079	11.933432135023	3
0	15086	11.933514135023	2
0	15095	11.943288135023	3
0	15102	11.943370135023	2
0	15112	11.944004135023	3
0	15119	11.944086135023	2
0	15137	12.005488135023	3
0	15144	12.005570135023	2
0	15153	12.009104135023	3
0	15160	12.009186135023	2
0	15171	12.021580135023	3
0	15178	12.021662135023	2
0	15188	12.039376135023	3
0	15195	12.039458135023	2
0	15205	12.049652135023	3
0	15212	12.049734135023	2
0	15222	12.063848135023	3
0	15229	12.063930135023	2
0	15239	12.074444135023	3
0	15246	12.074526135023	2
0	15263	12.105488135023	3
0	15270	12.105570135023	2
0	15279	12.107404135023	3
0	15286	12.107486135023	2
0	15297	12.123440135023	3
0	15304	12.123522135023	2
0	15313	12.127256135023	3
0	15320	12.127338135023	2
0	15330	12.135992135023	3
0	15337	12.136074135023	2
0	15348	12.151028135023	3
0	15355	12.151110135023	2
0	15364	12.160964135023	3
0	15371	12.161046135023	2
0	15389	12.205488135023	3
0	15396	12.205570135023	2
0	15405	12.212504135023	3
0	15412	12.212586135023	2
0	15422	12.221100135023	3
0	15429	12.221182135023	2
0	15439	12.228216135023	3
0	15446	12.228298135023	2
0	15456	12.232572135023	3
0	15463	12.232654135023	2
0	15474	12.250808135023	3
0	15481	12.250890135023	2
0	15490	12.254064135023	3
0	15497	12.254146135023	2
0	15515	12.305488135023	3
0	15522	12.305570135023	2
0	15532	12.324284135023	3
0	15539	12.324366135023	2
0	15548	12.332120135023	3
0	15555	12.332202135023	2
0	15565	12.334616135023	3
0	15572	12.334698135023	2
0	15583	12.345752135023	3
0	15590	12.345834135023	2
0	15599	12.346088135023	3
0	15606	12.346170135023	2
0	15615	12.355084135023	3
0	15622	12.355166135023	2
0	15641	12.405488135023	3
0	15648	12.405570135023	2
0	15657	12.409664135023	3
0	15664	12.409746135023	2
0	15675	12.430040135023	3
0	15682	12.430122135023	2
0	15692	12.445216135023	3
0	15699	12.445298135023	2
0	15709	12.465332135023	3
0	15716	12.465414135023	2
0	15725	12.474208135023	3
0	15732	12.474290135023	2
0	15742	12.478844135023	3
0	15749	12.478926135023	2
0	15767	12.505488135023	3
0	15774	12.505570135023	2
0	15784	12.525884135023	3
0	15791	12.525966135023	2
0	15801	12.543860135023	3
0	15808	12.543942135023	2
0	15817	12.544376135023	3
0	15824	12.544458135023	2
0	15833	12.548392135023	3
0	15840	12.548474135023	2
0	15852	12.560268135023	3
0	15859	12.560350135023	2
0	15868	12.568704135023	3
0	15875	12.568786135023	2
0	15893	12.605488135023	3
0	15900	12.605570135023	2
0	15910	12.624084135023	3
0	15917	12.624166135023	2
0	15926	12.632360135023	3
0	15933	12.632442135023	2
0	15944	12.644036135023	3
0	15951	12.644118135023	2
0	15960	12.645292135023	3
0	15967	12.645374135023	2
0	15978	12.656368135023	3
0	15985	12.656450135023	2
0	15995	12.668644135023	3
0	16002	12.668726135023	2
0	16019	12.705488135023	3
0	16026	12.705570135023	2
0	16036	12.721184135023	3
0	16043	12.721266135023	2
0	16052	12.728660135023	3
0	16059	12.728742135023	2
0	16069	12.734316135023	3
0	16076	12.734398135023	2
0	16087	12.745512135023	3
0	16094	12.745594135023	2
0	16104	12.756928135023	3
0	16111	12.757010135023	2
0	16120	12.759324135023	3
0	16127	12.759406135023	2
0	16145	12.805488135023	3
0	16152	12.805570135023	2
0	16162	12.817044135023	3
0	16169	12.817126135023	2
0	16179	12.836360135023	3
0	16186	12.836442135023	2
0	16195	12.843116135023	3
0	16202	12.843198135023	2
0	16213	12.855692135023	3
0	16220	12.855774135023	2
0	16229	12.861148135023	3
0	16236	12.861230135023	2
0	16245	12.862744135023	3
0	16252	12.862826135023	2
0	16271	12.905488135023	3
0	16278	12.905570135023	2
0	16288	12.919984135023	3
0	16295	12.920066135023	2
0	16305	12.940620135023	3
0	16312	12.940702135023	2
0	16321	12.950216135023	3
0	16328	12.950298135023	2
0	16339	12.962172135023	3
0	16346	12.962254135023	2
0	16356	12.980228135023	3
0	16363	12.980310135023	2
0	16373	12.996724135023	3
0	16380	12.996806135023	2
0	16396	13.005488135023	3
0	16403	13.005570135023	2
0	16413	13.015024135023	3
0	16420	13.015106135023	2
0	16431	13.033980135023	3
0	16438	13.034062135023	2
0	16447	13.037136135023	3
0	16454	13.037218135023	2
0	16464	13.044652135023	3
0	16471	13.044734135023	2
0	16481	13.047568135023	3
0	16488	13.047650135023	2
0	16499	13.057684135023	3
0	16506	13.057766135023	2
0	16523	13.105488135023	3
0	16530	13.105570135023	2
0	16539	13.108664135023	3
0	16546	13.108746135023	2
0	16556	13.116140135023	3
0	16563	13.116222135023	2
0	16572	13.117356135023	3
0	16579	13.117438135023	2
0	16591	13.134852135023	3
0	16598	13.134934135023	2
0	16607	13.144008135023	3
0	16614	13.144090135023	2
0	16625	13.160664135023	3
0	16632	13.160746135023	2
0	16649	13.205488135023	3
0	16656	13.205570135023	2
0	16665	13.213084135023	3
0	16672	13.213166135023	2
0	16683	13.232820135023	3
0	16690	13.232902135023	2
0	16699	13.241456135023	3
0	16706	13.241538135023	2
0	16716	13.248772135023	3
0	16723	13.248854135023	2
0	16733	13.255728135023	3
0	16740	13.255810135023	2
0	16751	13.273064135023	3
0	16758	13.273146135023	2
0	16775	13.305488135023	3
0	16782	13.305570135023	2
0	16792	13.321864135023	3
0	16799	13.321946135023	2
0	16809	13.339880135023	3
0	16816	13.339962135023	2
0	16825	13.342216135023	3
0	16832	13.342298135023	2
0	16843	13.359052135023	3
0	16850	13.359134135023	2
0	16859	13.367528135023	3
0	16866	13.367610135023	2
0	16876	13.374464135023	3
0	16883	13.374546135023	2
0	16901	13.405488135023	3
0	16908	13.405570135023	2
0	16917	13.406544135023	3
0	16924	13.406626135023	2
0	16935	13.423480135023	3
0	16942	13.423562135023	2
0	16952	13.442796135023	3
0	16959	13.442878135023	2
0	16969	13.461972135023	3
0	16976	13.462054135023	2
0	16985	13.468528135023	3
0	16992	13.468610135023	2
0	17002	13.477564135023	3
0	17009	13.477646135023	2
0	17027	13.505488135023	3
0	17034	13.505570135023	2
0	17043	13.507864135023	3
0	17050	13.507946135023	2
0	17061	13.525180135023	3
0	17068	13.525262135023	2
0	17078	13.541916135023	3
0	17085	13.541998135023	2
0	17095	13.554952135023	3
0	17102	13.555034135023	2
0	17112	13.565848135023	3
0	17119	13.565930135023	2
0	17129	13.583324135023	3
0	17136	13.583406135023	2
0	17153	13.605488135023	3
0	17160	13.605570135023	2
0	17170	13.618284135023	3
0	17177	13.618366135023	2
0	17187	13.633780135023	3
0	17194	13.633862135023	2
0	17204	13.645996135023	3
0	17211	13.646078135023	2
0	17220	13.649172135023	3
0	17227	13.649254135023	2
0	17238	13.662388135023	3
0	17245	13.662470135023	2
0	17254	13.663944135023	3
0	17261	13.664026135023	2
0	17279	13.705488135023	3
0	17286	13.705570135023	2
0	17295	13.712404135023	3
0	17302	13.712486135023	2
0	17312	13.722440135023	3
0	17320	13.722522135023	2
0	17330	13.741796135023	3
0	17337	13.741878135023	2
0	17347	13.753652135023	3
0	17354	13.753734135023	2
0	17364	13.767248135023	3
0	17371	13.767330135023	2
0	17380	13.767604135023	3
0	17387	13.767686135023	2
0	17405	13.805488135023	3
0	17412	13.805570135023	2
0	17422	13.819224135023	3
0	17429	13.819306135023	2
0	17439	13.831360135023	3
0	17446	13.831442135023	2
0	17455	13.831976135023	3
0	17462	13.832058135023	2
0	17471	13.838692135023	3
0	17478	13.838774135023	2
0	17490	13.854528135023	3
0	17497	13.854610135023	2
0	17507	13.868264135023	3
0	17514	13.868346135023	2
0	17531	13.905488135023	3
0	17538	13.905570135023	2
0	17547	13.909104135023	3
0	17554	13.909186135023	2
0	17565	13.928460135023	3
0	17572	13.928542135023	2
0	17582	13.948676135023	3
0	17589	13.948758135023	2
0	17598	13.955512135023	3
0	17605	13.955594135023	2
0	17616	13.975908135023	3
0	17623	13.975990135023	2
0	17632	13.980364135023	3
0	17639	13.980446135023	2
0	17657	14.005488135023	3
0	17664	14.005570135023	2
0	17674	14.023244135023	3
0	17681	14.023326135023	2
0	17690	14.027140135023	3
0	17697	14.027222135023	2
0	17708	14.041076135023	3
0	17715	14.041158135023	2
0	17724	14.044452135023	3
0	17731	14.044534135023	2
0	17742	14.062088135023	3
0	17749	14.062170135023	2
0	17759	14.081184135023	3
0	17766	14.081266135023	2
0	17783	14.105488135023	3
0	17790	14.105570135023	2
0	17799	14.107584135023	3
0	17806	14.107666135023	2
0	17817	14.122460135023	3
0	17824	14.122542135023	2
0	17833	14.129336135023	3
0	17840	14.129418135023	2
0	17850	14.139252135023	3
0	17857	14.139334135023	2
0	17868	14.151868135023	3
0	17875	14.151950135023	2
0	17884	14.161804135023	3
0	17891	14.161886135023	2
0	17909	14.205488135023	3
0	17916	14.205570135023	2
0	17926	14.225484135023	3
0	17933	14.225566135023	2
0	17942	14.227000135023	3
0	17949	14.227082135023	2
0	17958	14.228796135023	3
0	17965	14.228878135023	2
0	17977	14.241472135023	3
0	17984	14.241554135023	2
0	17993	14.244568135023	3
0	18000	14.244650135023	2
0	18009	14.249724135023	3
0	18016	14.249806135023	2
0	18035	14.305488135023	3
0	18042	14.305570135023	2
0	18051	14.311364135023	3
0	18058	14.311446135023	2
0	18069	14.325480135023	3
0	18076	14.325562135023	2
0	18085	14.329896135023	3
0	18092	14.329978135023	2
0	18101	14.331292135023	3
0	18108	14.331374135023	2
0	18120	14.345788135023	3
0	18127	14.345870135023	2
0	18137	14.364484135023	3
0	18144	14.364566135023	2
0	18161	14.405488135023	3
0	18168	14.405570135023	2
0	18178	14.419504135023	3
0	18185	14.419586135023	2
0	18194	14.427740135023	3
0	18201	14.427822135023	2
0	18211	14.433416135023	3
0	18218	14.433498135023	2
0	18229	14.450932135023	3
0	18236	14.451014135023	2
0	18245	14.455548135023	3
0	18252	14.455630135023	2
0	18261	14.457004135023	3
0	18268	14.457086135023	2
0	18287	14.505488135023	3
0	18294	14.505570135023	2
0	18303	14.513804135023	3
0	18310	14.513886135023	2
0	18320	14.518600135023	3
0	18327	14.518682135023	2
0	18338	14.538296135023	3
0	18345	14.538378135023	2
0	18355	14.553812135023	3
0	18362	14.553894135023	2
0	18371	14.556468135023	3
0	18378	14.556550135023	2
0	18387	14.561324135023	3
0	18394	14.561406135023	2
0	18413	14.605488135023	3
0	18420	14.605570135023	2
0	18429	14.609424135023	3
0	18436	14.609506135023	2
0	18447	14.625620135023	3
0	18454	14.625702135023	2
0	18463	14.629736135023	3
0	18470	14.629818135023	2
0	18480	14.636732135023	3
0	18487	14.636814135023	2
0	18498	14.647548135023	3
0	18505	14.647630135023	2
0	18515	14.661004135023	3
0	18522	14.661086135023	2
0	18539	14.705488135023	3
0	18546	14.705570135023	2
0	18556	14.715644135023	3
0	18563	14.715726135023	2
0	18573	14.725900135023	3
0	18580	14.725982135023	2
0	18590	14.744436135023	3
0	18597	14.744518135023	2
0	18607	14.759932135023	3
0	18614	14.760014135023	2
0	18623	14.763928135023	3
0	18630	14.764010135023	2
0	18641	14.776784135023	3
0	18648	14.776866135023	2
0	18665	14.805488135023	3
0	18672	14.805570135023	2
0	18682	14.824104135023	3
0	18689	14.824186135023	2
0	18699	14.834200135023	3
0	18706	14.834282135023	2
0	18716	14.846836135023	3
0	18723	14.846918135023	2
0	18733	14.866272135023	3
0	18740	14.866354135023	2
0	18749	14.866928135023	3
0	18756	14.867010135023	2
0	18765	14.871004135023	3
0	18772	14.871086135023	2
0	18791	14.905488135023	3
0	18798	14.905570135023	2
0	18807	14.912864135023	3
0	18814	14.912946135023	2
0	18824	14.919520135023	3
0	18831	14.919602135023	2
0	18842	14.934896135023	3
0	18849	14.934978135023	2
0	18859	14.951252135023	3
0	18866	14.951334135023	2
0	18875	14.954168135023	3
0	18882	14.954250135023	2
0	18892	14.963124135023	3
0	18899	14.963206135023	2
0	18917	15.005488135023	3
0	18924	15.005570135023	2
0	18933	15.007404135023	3
0	18940	15.007486135023	2
0	18951	15.026040135023	3
0	18958	15.026122135023	2
0	18967	15.031956135023	3
0	18974	15.032038135023	2
0	18985	15.047632135023	3
0	18992	15.047714135023	2
0	19001	15.053588135023	3
0	19008	15.053670135023	2
0	19019	15.065604135023	3
0	19026	15.065686135023	2
0	19043	15.105488135023	3
0	19050	15.105570135023	2
0	19060	15.120484135023	3
0	19067	15.120566135023	2
0	19076	15.129560135023	3
0	19083	15.129642135023	2
0	19093	15.132296135023	3
0	19100	15.132378135023	2
0	19109	15.133412135023	3
0	19116	15.133494135023	2
0	19128	15.145748135023	3
0	19135	15.145830135023	2
0	19145	15.157624135023	3
0	19152	15.157706135023	2
0	19169	15.205488135023	3
0	19176	15.205570135023	2
0	19186	15.217584135023	3
0	19193	15.217666135023	2
0	19203	15.230460135023	3
0	19210	15.230542135023	2
0	19219	15.235496135023	3
0	19226	15.235578135023	2
0	19235	15.237252135023	3
0	19242	15.237334135023	2
0	19254	15.247628135023	3
0	19261	15.247710135023	2
0	19271	15.263124135023	3
0	19278	15.263206135023	2
0	19295	15.305488135023	3
0	19302	15.305570135023	2
0	19312	15.323464135023	3
0	19319	15.323546135023	2
0	19329	15.334580135023	3
0	19336	15.334662135023	2
0	19345	15.343136135023	3
0	19352	15.343218135023	2
0	19363	15.360452135023	3
0	19370	15.360534135023	2
0	19380	15.374248135023	3
0	19387	15.374330135023	2
0	19397	15.386524135023	3
0	19404	15.386606135023	2
0	19421	15.405488135023	3
0	19428	15.405570135023	2
0	19438	15.417544135023	3
0	19445	15.417626135023	2
0	19455	15.433100135023	3
0	19462	15.433182135023	2
0	19472	15.450236135023	3
0	19479	15.450318135023	2
0	19488	15.455412135023	3
0	19495	15.455494135023	2
0	19505	15.465168135023	3
0	19512	15.465250135023	2
0	19523	15.485584135023	3
0	19530	15.485666135023	2
0	19547	15.505488135023	3
0	19554	15.505570135023	2
0	19564	15.524584135023	3
0	19571	15.524666135023	2
0	19581	15.539320135023	3
0	19588	15.539402135023	2
0	19598	15.551836135023	3
0	19605	15.551918135023	2
0	19614	15.552752135023	3
0	19621	15.552834135023	2
0	19630	15.557108135023	3
0	19637	15.557190135023	2
0	19649	15.568624135023	3
0	19656	15.568706135023	2
0	19673	15.605488135023	3
0	19680	15.605570135023	2
0	19690	15.622744135023	3
0	19697	15.622826135023	2
0	19707	15.633800135023	3
0	19714	15.633882135023	2
0	19724	15.646076135023	3
0	19731	15.646158135023	2
0	19740	15.650532135023	3
0	19747	15.650614135023	2
0	19758	15.662328135023	3
0	19765	15.662410135023	2
0	19774	15.670284135023	3
0	19781	15.670366135023	2
0	19799	15.705488135023	3
0	19806	15.705570135023	2
0	19816	15.723924135023	3
0	19823	15.724006135023	2
0	19833	15.737340135023	3
0	19840	15.737422135023	2
0	19850	15.750996135023	3
0	19857	15.751078135023	2
0	19867	15.771472135023	3
0	19874	15.771554135023	2
0	19883	15.773268135023	3
0	19890	15.773350135023	2
0	19901	15.787804135023	3
0	19908	15.787886135023	2
0	19925	15.805488135023	3
0	19932	15.805570135023	2
0	19942	15.819444135023	3
0	19949	15.819526135023	2
0	19959	15.833100135023	3
0	19966	15.833182135023	2
0	19976	15.850056135023	3
0	19983	15.850138135023	2
0	19993	15.860552135023	3
0	20000	15.860634135023	2
0	20009	15.865468135023	3
0	20016	15.865550135023	2
0	20026	15.874504135023	3
0	20033	15.874586135023	2
0	20051	15.905488135023	3
0	20058	15.905570135023	2
0	20067	15.909564135023	3
0	20074	15.909646135023	2
0	20085	15.920460135023	3
0	20092	15.920542135023	2
0	20101	15.924916135023	3
0	20108	15.924998135023	2
0	20119	15.940852135023	3
0	20126	15.940934135023	2
0	20135	15.944528135023	3
0	20142	15.944610135023	2
0	20153	15.955604135023	3
0	20160	15.955686135023	2
0	20177	16.005488135023	3
0	20184	16.005570135023	2
0	20194	16.025704135023	3
0	20201	16.025786135023	2
0	20210	16.027540135023	3
0	20217	16.027622135023	2
0	20226	16.030276135023	3
0	20233	16.030358135023	2
0	20244	16.037932135023	3
0	20251	16.038014135023	2
0	20261	16.046288135023	3
0	20268	16.046370135023	2
0	20279	16.060104135023	3
0	20286	16.060186135023	2
0	20303	16.105488135023	3
0	20310	16.105570135023	2
0	20320	16.124744135023	3
0	20327	16.124826135023	2
0	20337	16.136140135023	3
0	20344	16.136222135023	2
0	20354	16.154676135023	3
0	20361	16.154758135023	2
0	20371	16.165392135023	3
0	20378	16.165474135023	2
0	20387	16.174248135023	3
0	20394	16.174330135023	2
0	20405	16.187144135023	3
0	20412	16.187226135023	2
0	20429	16.205488135023	3
0	20436	16.205570135023	2
0	20446	16.220704135023	3
0	20453	16.220786135023	2
0	20463	16.231660135023	3
0	20470	16.231742135023	2
0	20479	16.235876135023	3
0	20486	16.235958135023	2
0	20497	16.249612135023	3
0	20504	16.249694135023	2
0	20513	16.259368135023	3
0	20520	16.259450135023	2
0	20530	16.264364135023	3
0	20537	16.264446135023	2
0	20555	16.305488135023	3
0	20562	16.305570135023	2
0	20572	16.320624135023	3
0	20579	16.320706135023	2
0	20589	16.339500135023	3
0	20596	16.339582135023	2
0	20605	16.344496135023	3
0	20612	16.344578135023	2
0	20623	16.360172135023	3
0	20630	16.360254135023	2
0	20640	16.371528135023	3
0	20647	16.371610135023	2
0	20656	16.372124135023	3
0	20663	16.372206135023	2
0	20681	16.405488135023	3
0	20688	16.405570135023	2
0	20698	16.418864135023	3
0	20705	16.418946135023	2
0	20714	16.420100135023	3
0	20721	16.420182135023	2
0	20732	16.436816135023	3
0	20739	16.436898135023	2
0	20749	16.448872135023	3
0	20756	16.448954135023	2
0	20766	16.469088135023	3
0	20773	16.469170135023	2
0	20782	16.471964135023	3
0	20789	16.472046135023	2
0	20807	16.505488135023	3
0	20814	16.505570135023	2
0	20824	16.520744135023	3
0	20831	16.520826135023	2
0	20841	16.535300135023	3
0	20848	16.535382135023	2
0	20857	16.535596135023	3
0	20864	16.535678135023	2
0	20873	16.541452135023	3
0	20880	16.541534135023	2
0	20892	16.553748135023	3
0	20899	16.553830135023	2
0	20908	16.561904135023	3
0	20915	16.561986135023	2
0	20933	16.605488135023	3
0	20940	16.605570135023	2
0	20950	16.619024135023	3
0	20957	16.619106135023	2
0	20966	16.625300135023	3
0	20973	16.625382135023	2
0	20984	16.641416135023	3
0	20991	16.641498135023	2
0	21001	16.653472135023	3
0	21008	16.653554135023	2
0	21017	16.653968135023	3
0	21024	16.654050135023	2
0	21034	16.663964135023	3
0	21041	16.664046135023	2
0	21059	16.705488135023	3
0	21066	16.705570135023	2
0	21075	16.705964135023	3
0	21082	16.706046135023	2
0	21091	16.709200135023	3
0	21098	16.709282135023	2
0	21107	16.710736135023	3
0	21114	16.710818135023	2
0	21127	16.726692135023	3
0	21134	16.726774135023	2
0	21144	16.741048135023	3
0	21151	16.741130135023	2
0	21161	16.754764135023	3
0	21168	16.754846135023	2
0	21185	16.805488135023	3
0	21192	16.805570135023	2
0	21201	16.814684135023	3
0	21208	16.814766135023	2
0	21219	16.834020135023	3
0	21226	16.834102135023	2
0	21235	16.837416135023	3
0	21242	16.837498135023	2
0	21251	16.843692135023	3
0	21258	16.843774135023	2
0	21268	16.846728135023	3
0	21275	16.846810135023	2
0	21285	16.849064135023	3
0	21292	16.849146135023	2
0	21311	16.905488135023	3
0	21318	16.905570135023	2
0	21328	16.923684135023	3
0	21335	16.923766135023	2
0	21345	16.939520135023	3
0	21352	16.939602135023	2
0	21361	16.942156135023	3
0	21368	16.942238135023	2
0	21377	16.947072135023	3
0	21384	16.947154135023	2
0	21396	16.966508135023	3
0	21403	16.966590135023	2
0	21412	16.976124135023	3
0	21419	16.976206135023	2
0	21437	17.005488135023	3
0	21444	17.005570135023	2
0	21453	17.006804135023	3
0	21460	17.006886135023	2
0	21469	17.009180135023	3
0	21476	17.009262135023	2
0	21488	17.026896135023	3
0	21495	17.026978135023	2
0	21504	17.032832135023	3
0	21511	17.032914135023	2
0	21520	17.036428135023	3
0	21527	17.036510135023	2
0	21537	17.038784135023	3
0	21544	17.038866135023	2
0	21563	17.105488135023	3
0	21570	17.105570135023	2
0	21580	17.119644135023	3
0	21587	17.119726135023	2
0	21597	17.133580135023	3
0	21604	17.133662135023	2
0	21614	17.144876135023	3
0	21621	17.144958135023	2
0	21631	17.162992135023	3
0	21638	17.163074135023	2
0	21648	17.179768135023	3
0	21655	17.179850135023	2
0	21664	17.188724135023	3
0	21671	17.188806135023	2
0	21689	17.206420135023	3
0	21696	17.206502135023	2
0	21706	17.225116135023	3
0	21713	17.225198135023	2
0	21723	17.237772135023	3
0	21730	17.237854135023	2
0	21739	17.241568135023	3
0	21746	17.241650135023	2
0	21757	17.260064135023	3
0	21764	17.260146135023	2
0	21773	17.267540135023	3
0	21780	17.267622135023	2
0	21789	17.269956135023	3
0	21796	17.270038135023	2
0	21815	17.305488135023	3
0	21822	17.305570135023	2
0	21832	17.324504135023	3
0	21839	17.324586135023	2
0	21848	17.326720135023	3
0	21855	17.326802135023	2
0	21865	17.335036135023	3
0	21872	17.335118135023	2
0	21882	17.341092135023	3
0	21889	17.341174135023	2
0	21899	17.348708135023	3
0	21906	17.348790135023	2
0	21917	17.363064135023	3
[...]
64	37749	27.928290204842	0
64	37749	27.928290204842	4.4e-05
64	37756	27.928334204842	0
64	37769	27.935366204842	0
64	37769	27.935366204842	4.4e-05
64	37776	27.935410204842	0
64	37790	27.952682204842	0
64	37790	27.952682204842	4.4e-05
64	37797	27.952726204842	0
64	37809	27.965718204842	0
64	37809	27.965718204842	4.4e-05
64	37816	27.965762204842	0
64	37905	28.021998201504	0
64	37905	28.021998201504	4.4e-05
64	37912	28.022042201504	0
64	37924	28.035574201504	0
64	37924	28.035574201504	4.4e-05
64	37931	28.035618201504	0
64	37942	28.038770201504	0
64	37942	28.038770201504	4.4e-05
64	37949	28.038814201504	0
64	37962	28.055146201504	0
64	37962	28.055146201504	4.4e-05
64	37969	28.055190201504	0
64	37980	28.061922201504	0
64	37980	28.061922201504	4.4e-05
64	37986	28.061966201504	0
64	37998	28.079598201504	0
64	37998	28.079598201504	4.4e-05
64	38005	28.079642201504	0
64	38016	28.085134201504	0
64	38016	28.085134201504	4.4e-05
64	38023	28.085178201504	0
64	38079	28.119146198217	0
64	38079	28.119146198217	4.4e-05
64	38086	28.119190198217	0
64	38098	28.139702198217	0
64	38098	28.139702198217	4.4e-05
64	38105	28.139746198217	0
64	38116	28.147118198217	0
64	38116	28.147118198217	4.4e-05
64	38123	28.147162198217	0
64	38135	28.154674198217	0
64	38135	28.154674198217	4.4e-05
64	38142	28.154718198217	0
64	38155	28.172830198217	0
64	38155	28.172830198217	4.4e-05
64	38162	28.172874198217	0
64	38173	28.175406198217	0
64	38173	28.175406198217	4.4e-05
64	38180	28.175450198217	0
64	38193	28.190082198217	0
64	38193	28.190082198217	4.4e-05
64	38200	28.190126198217	0
64	38255	28.222466194881	0
64	38255	28.222466194881	4.4e-05
64	38262	28.222510194881	0
64	38274	28.242842194881	0
64	38274	28.242842194881	4.4e-05
64	38281	28.242886194881	0
64	38292	28.250438194881	0
64	38292	28.250438194881	4.4e-05
64	38299	28.250482194881	0
64	38312	28.270094194881	0
64	38312	28.270094194881	4.4e-05
64	38319	28.270138194881	0
64	38331	28.283050194881	0
64	38331	28.283050194881	4.4e-05
64	38338	28.283094194881	0
64	38349	28.289546194881	0
64	38349	28.289546194881	4.4e-05
64	38356	28.289590194881	0
65	31027	24.53590231731	162
65	31043	24.53663831731	162
65	31075	24.54087431731	162
65	31092	24.54519031731	162
65	31116	24.55688631731	162
65	31133	24.57580231731	162
65	32089	25.306542291615	162
65	32105	25.309038291615	162
65	32121	25.311974291615	162
65	32142	25.320950291615	162
65	32176	25.332346291615	162
65	32192	25.333342291615	162
65	32390	25.436754288009	162
65	32472	25.456410288009	162
65	32492	25.467226288009	162
65	32508	25.469482288009	162
65	32526	25.483518288009	162
65	32542	25.491834288009	162
65	33081	25.823018275541	162
65	33116	25.833514275541	162
65	33132	25.840270275541	162
65	33151	25.852206275541	162
65	33167	25.852582275541	162
65	33183	25.853858275541	162
65	33563	26.142474264302	162
65	33595	26.147010264302	162
65	33614	26.163946264302	162
65	33648	26.182022264302	162
65	33680	26.190698264302	162
65	33717	26.203374264302	162
65	33841	26.227534261279	162
65	33857	26.230550261279	162
65	33892	26.244666261279	162
65	33941	26.252762261279	162
65	33959	26.258798261279	162
65	33975	26.260454261279	162
65	34266	26.459910490907	162
65	34284	26.461826490907	162
65	34303	26.470262490907	162
65	34321	26.481278490907	162
65	34338	26.498474490907	162
65	34356	26.501950490907	162
65	34660	26.662758247027	162
65	34676	26.668954247027	162
65	34693	26.677050247027	162
65	34711	26.690786247027	162
65	34731	26.700142247027	162
65	34790	26.719046244916	162
65	34856	26.731578244916	162
65	34891	26.751874244916	162
65	34909	26.753430244916	162
65	34960	26.765502461184	162
65	34992	26.767498461184	162
65	35008	26.768774461184	162
65	35156	26.821358241469	162
65	35173	26.835214241469	162
65	35192	26.855370241469	162
65	35208	26.857086241469	162
65	35228	26.871902241469	162
65	35245	26.886358241469	162
65	35389	26.930906237777	162
65	35423	26.946982237777	162
65	35451	26.959918237777	162
65	35477	26.974854237777	162
65	35495	26.983370237777	162
65	35512	26.991166237777	162
65	35658	27.031750234756	162
65	35676	27.034906234756	162
65	35694	27.053262234756	162
65	35712	27.057518234756	162
65	35732	27.069434234756	162
65	35751	27.082250234756	162
65	35922	27.11698623134	162
65	35977	27.13303842324	162
65	35997	27.14037442324	162
65	36015	27.14103042324	162
65	36064	27.155486613733	162
65	36084	27.163942613733	162
65	36279	27.238962227596	162
65	36298	27.250758227596	162
65	36316	27.256074227596	162
65	36334	27.258050227596	162
65	36353	27.268586227596	162
65	36370	27.285302227596	162
65	36481	27.344554224807	162
65	36500	27.358210224807	162
65	36519	27.376466224807	162
65	36536	27.392282224807	162
65	36554	27.394678224807	162
65	36629	27.413662221526	162
65	36666	27.437394221526	162
65	36685	27.455710221526	162
65	36701	27.463006221526	162
65	36721	27.478462221526	162
65	36738	27.492058221526	162
65	36756	27.494314221526	162
65	36934	27.536706217961	162
65	36951	27.550522217961	162
65	36968	27.567218217961	162
65	36986	27.571894217961	162
65	37004	27.586510217961	162
65	37022	27.589586217961	162
65	37121	27.625058214869	162
65	37140	27.640434214869	162
65	37158	27.641910214869	162
65	37176	27.653766214869	162
65	37194	27.657542214869	162
65	37212	27.671398214869	162
65	37337	27.718054211453	162
65	37359	27.738410211453	162
65	37375	27.747246211453	162
65	37393	27.764722211453	162
65	37412	27.778098211453	162
65	37431	27.796874211453	162
65	37510	27.816262208224	162
65	37529	27.831098208224	162
65	37547	27.832554208224	162
65	37565	27.838090208224	162
65	37583	27.840706208224	162
65	37603	27.861082208224	162
65	37713	27.920598204842	162
65	37731	27.925794204842	162
65	37749	27.928290204842	162
65	37769	27.935366204842	162
65	37790	27.952682204842	162
65	37809	27.965718204842	162
65	37924	28.035574201504	162
65	37942	28.038770201504	162
65	37962	28.055146201504	162
65	37980	28.061922201504	162
65	37998	28.079598201504	162
65	38016	28.085134201504	162
65	38098	28.139702198217	162
65	38116	28.147118198217	162
65	38135	28.154674198217	162
65	38155	28.172830198217	162
65	38173	28.175406198217	162
65	38193	28.190082198217	162
65	38274	28.242842194881	162
65	38292	28.250438194881	162
65	38312	28.270094194881	162
65	38331	28.283050194881	162
65	38349	28.289546194881	162
66	31140	24.57585731731	0.040473
66	32199	25.333397291615	0.027733
66	32549	25.491889288009	0.071693
66	33190	25.853913275541	0.047773
66	33724	26.203429264302	0.076213
66	33984	26.260509261279	0.045712999751
66	34363	26.502005490907	0.059509237004
66	34797	26.719101244916	0.074800997889
66	35015	26.768829461184	0.049865216268
66	35252	26.886413241469	0.078612999936
66	35521	26.991221237777	0.064573
66	35760	27.082305234756	0.065173
66	36091	27.163997613733	0.050069382393
66	36377	27.285357227596	0.059433
66	36636	27.413717221526	0.085200996719
66	36765	27.494369221526	0.080789
66	37031	27.589641217961	0.064813
66	37221	27.671453214869	0.060633
66	37440	27.796929211453	0.086713
66	37612	27.861137208224	0.055173
66	37818	27.965773204842	0.045833
66	38025	28.085189201504	0.063273
66	38202	28.190137198217	0.071073
67	31140	24.57585731731	162
67	32199	25.333397291615	162
67	32549	25.491889288009	162
67	33190	25.853913275541	162
67	33515	26.124402264302	162
67	33724	26.203429264302	162
67	33793	26.215018261279	162
67	33984	26.260509261279	162
67	34238	26.452394490907	162
67	34363	26.502005490907	162
67	34797	26.719101244916	162
67	34932	26.763186461184	162
67	35015	26.768829461184	162
67	35123	26.808922241469	162
67	35252	26.886413241469	162
67	35521	26.991221237777	162
67	35608	27.010158234756	162
67	35760	27.082305234756	162
67	35830	27.107682231503	162
67	35876	27.11257423134	162
67	35950	27.13018242324	162
67	36035	27.148970613733	162
67	36091	27.163997613733	162
67	36194	27.213734227966	162
67	36231	27.224810227596	162
67	36377	27.285357227596	162
67	36636	27.413717221526	162
67	36765	27.494369221526	162
67	36852	27.51159821803	162
67	36882	27.513674217961	162
67	37031	27.589641217961	162
67	37221	27.671453214869	162
67	37291	27.708782211453	162
67	37440	27.796929211453	162
67	37612	27.861137208224	162
67	37666	27.906966204842	162
67	37818	27.965773204842	162
67	38025	28.085189201504	162
67	38202	28.190137198217	162
68	31140	24.57585731731	162
68	32199	25.333397291615	162
68	32549	25.491889288009	162
68	33190	25.853913275541	162
68	33724	26.203429264302	162
68	33984	26.260509261279	162
68	34363	26.502005490907	162
68	34797	26.719101244916	162
68	35015	26.768829461184	162
68	35252	26.886413241469	162
68	35521	26.991221237777	162
68	35760	27.082305234756	162
68	36091	27.163997613733	162
68	36377	27.285357227596	162
68	36636	27.413717221526	162
68	36765	27.494369221526	162
68	37031	27.589641217961	162
68	37221	27.671453214869	162
68	37440	27.796929211453	162
68	37612	27.861137208224	162
68	37818	27.965773204842	162
68	38025	28.085189201504	162
68	38202	28.190137198217	162
69	31140	24.57585731731	162
69	32199	25.333397291615	162
69	32549	25.491889288009	162
69	33190	25.853913275541	162
69	33515	26.124402264302	162
69	33724	26.203429264302	162
69	33793	26.215018261279	162
69	33984	26.260509261279	162
69	34238	26.452394490907	162
69	34363	26.502005490907	162
69	34797	26.719101244916	162
69	34932	26.763186461184	162
69	35015	26.768829461184	162
69	35123	26.808922241469	162
69	35252	26.886413241469	162
69	35521	26.991221237777	162
69	35608	27.010158234756	162
69	35760	27.082305234756	162
69	35830	27.107682231503	162
69	35876	27.11257423134	162
69	35950	27.13018242324	162
69	36035	27.148970613733	162
69	36091	27.163997613733	162
69	36194	27.213734227966	162
69	36231	27.224810227596	162
69	36377	27.285357227596	162
69	36636	27.413717221526	162
69	36765	27.494369221526	162
69	36852	27.51159821803	162
69	36882	27.513674217961	162
69	37031	27.589641217961	162
69	37221	27.671453214869	162
69	37291	27.708782211453	162
69	37440	27.796929211453	162
69	37612	27.861137208224	162
69	37666	27.906966204842	162
69	37818	27.965773204842	162
69	38025	28.085189201504	162
69	38202	28.190137198217	162
70	31140	24.57585731731	162
70	32199	25.333397291615	162
70	32549	25.491889288009	162
70	33190	25.853913275541	162
70	33724	26.203429264302	162
70	33984	26.260509261279	162
70	34363	26.502005490907	162
70	34797	26.719101244916	162
70	35015	26.768829461184	162
70	35252	26.886413241469	162
70	35521	26.991221237777	162
70	35760	27.082305234756	162
70	36091	27.163997613733	162
70	36377	27.285357227596	162
70	36636	27.413717221526	162
70	36765	27.494369221526	162
70	37031	27.589641217961	162
70	37221	27.671453214869	162
70	37440	27.796929211453	162
70	37612	27.861137208224	162
70	37818	27.965773204842	162
70	38025	28.085189201504	162
70	38202	28.190137198217	162
71	32042	25.305570291615	162
71	32306	25.413682288009	162
71	33741	26.207562261528	162
71	34756	26.705570244916	162
71	35542	27.005570234909	162
71	36112	27.205570228238	162
71	37459	27.805570208224	162
71	37632	27.905570204888	162
71	38046	28.105570198217	162
71	38222	28.205570194881	162
71	38379	28.305570191546	162
72	32942	25.787510416056	14
72	33978	26.26045438602	162
72	34218	26.442578372569	162
72	34253	26.452438609242	14
72	34269	26.459910608994	162
72	34714	26.690786357413	162
72	34894	26.751874353265	162
72	34912	26.753430353213	162
72	35138	26.808966347912	14
72	35176	26.835214347038	162
72	35211	26.857086346308	162
72	35426	26.946982339617	162
72	35480	26.974854338688	162
72	35515	26.991166338144	162
72	35623	27.010202334486	14
72	35661	27.031750333769	162
72	35697	27.053262333051	162
72	35715	27.057518332909	162
72	35735	27.069434332512	162
72	35754	27.082250332084	162
72	35925	27.11698632751	162
72	35980	27.133038518874	162
72	36000	27.14037451863	162
72	36067	27.155486708618	162
72	36246	27.224854320166	14
72	36261	27.226006320129	162
72	36282	27.238962319697	162
72	36301	27.250758319304	162
72	36319	27.256074319126	162
72	36448	27.308466314588	14
72	36484	27.344554313386	162
72	36503	27.35821031293	162
72	36539	27.392282311794	162
72	36617	27.406830308026	14
72	36669	27.437394307008	162
72	36704	27.463006306154	162
72	36741	27.492058305185	162
72	36759	27.494314305109	162
72	36897	27.513718300896	14
72	36971	27.567218299113	162
72	37007	27.586510298469	162
72	37025	27.589586298366	162
72	37087	27.606410294712	14
72	37102	27.610902294563	162
72	37124	27.625058294091	162
72	37143	27.640434293578	162
72	37179	27.653766293134	162
72	37215	27.671398292546	162
72	37306	27.708826287879	14
72	37340	27.718054287573	162
72	37396	27.764722286017	162
72	37415	27.77809828557	162
72	37434	27.796874284944	162
72	37478	27.805614281422	14
72	37513	27.816262281068	162
72	37532	27.831098280574	162
72	37550	27.832554280525	162
72	37568	27.83809028034	162
72	37606	27.861082279573	162
72	37681	27.907010274658	14
72	37716	27.920598274206	162
72	37734	27.925794274033	162
72	37752	27.92829027395	162
72	37772	27.935366273714	162
72	37793	27.952682273136	162
72	37812	27.965718272701	162
72	37889	28.007066267982	14
72	37908	28.021998267486	162
72	37927	28.035574267033	162
72	37945	28.038770266926	162
72	37965	28.05514626638	162
72	38001	28.079598265564	162
72	38019	28.08513426538	162
72	38065	28.105614261408	14
72	38082	28.119146260958	162
72	38101	28.139702260273	162
72	38119	28.147118260025	162
72	38138	28.154674259773	162
72	38158	28.172830259168	162
72	38176	28.175406259082	162
72	38196	28.190082258592	162
72	38241	28.205614254736	14
72	38258	28.222466254176	162
72	38277	28.242842253496	162
72	38295	28.250438253243	162
72	38315	28.270094252587	162
72	38334	28.283050252155	162
72	38352	28.289546251938	162
72	38398	28.305614248066	14
73	32942	25.787510416056	14
73	34253	26.452438609242	14
73	35138	26.808966347912	14
73	35623	27.010202334486	14
73	36246	27.224854320166	14
73	36448	27.308466314588	14
73	36617	27.406830308026	14
73	36897	27.513718300896	14
73	37087	27.606410294712	14
73	37306	27.708826287879	14
73	37478	27.805614281422	14
73	37681	27.907010274658	14
73	37889	28.007066267982	14
73	38065	28.105614261408	14
73	38241	28.205614254736	14
73	38398	28.305614248066	14
74	32942	25.787510416056	14
74	34253	26.452438609242	14
74	35138	26.808966347912	14
74	35623	27.010202334486	14
74	36246	27.224854320166	14
74	36448	27.308466314588	14
74	36617	27.406830308026	14
74	36897	27.513718300896	14
74	37087	27.606410294712	14
74	37306	27.708826287879	14
74	37478	27.805614281422	14
74	37681	27.907010274658	14
74	37889	28.007066267982	14
74	38065	28.105614261408	14
74	38241	28.205614254736	14
74	38398	28.305614248066	14
75	32942	25.787510416056	14
75	34253	26.452438609242	14
75	35138	26.808966347912	14
75	35623	27.010202334486	14
75	36246	27.224854320166	14
75	36448	27.308466314588	14
75	36617	27.406830308026	14
75	36897	27.513718300896	14
75	37087	27.606410294712	14
75	37306	27.708826287879	14
75	37478	27.805614281422	14
75	37681	27.907010274658	14
75	37889	28.007066267982	14
75	38065	28.105614261408	14
75	38241	28.205614254736	14
75	38398	28.305614248066	14
76	33515	26.124402264302	162
76	33793	26.215018261279	162
76	34238	26.452394490907	162
76	34932	26.763186461184	162
76	35123	26.808922241469	162
76	35608	27.010158234756	162
76	35830	27.107682231503	162
76	35876	27.11257423134	162
76	35950	27.13018242324	162
76	36035	27.148970613733	162
76	36194	27.213734227966	162
76	36231	27.224810227596	162
76	36852	27.51159821803	162
76	36882	27.513674217961	162
76	37291	27.708782211453	162
76	37666	27.906966204842	162
77	33515	26.124402264302	162
77	33793	26.215018261279	162
77	34238	26.452394490907	162
77	34932	26.763186461184	162
77	35123	26.808922241469	162
77	35608	27.010158234756	162
77	35830	27.107682231503	162
77	35876	27.11257423134	162
77	35950	27.13018242324	162
77	36035	27.148970613733	162
77	36194	27.213734227966	162
77	36231	27.224810227596	162
77	36852	27.51159821803	162
77	36882	27.513674217961	162
77	37291	27.708782211453	162
77	37666	27.906966204842	162
78	33978	26.26045438602	162
78	34218	26.442578372569	162
78	34269	26.459910608994	162
78	34714	26.690786357413	162
78	34894	26.751874353265	162
78	34912	26.753430353213	162
78	35176	26.835214347038	162
78	35211	26.857086346308	162
78	35426	26.946982339617	162
78	35480	26.974854338688	162
78	35515	26.991166338144	162
78	35661	27.031750333769	162
78	35697	27.053262333051	162
78	35715	27.057518332909	162
78	35735	27.069434332512	162
78	35754	27.082250332084	162
78	35925	27.11698632751	162
78	35980	27.133038518874	162
78	36000	27.14037451863	162
78	36067	27.155486708618	162
78	36261	27.226006320129	162
78	36282	27.238962319697	162
78	36301	27.250758319304	162
78	36319	27.256074319126	162
78	36484	27.344554313386	162
78	36503	27.35821031293	162
78	36539	27.392282311794	162
78	36669	27.437394307008	162
78	36704	27.463006306154	162
78	36741	27.492058305185	162
78	36759	27.494314305109	162
78	36971	27.567218299113	162
78	37007	27.586510298469	162
78	37025	27.589586298366	162
78	37102	27.610902294563	162
78	37124	27.625058294091	162
78	37143	27.640434293578	162
78	37179	27.653766293134	162
78	37215	27.671398292546	162
78	37340	27.718054287573	162
78	37396	27.764722286017	162
78	37415	27.77809828557	162
78	37434	27.796874284944	162
78	37513	27.816262281068	162
78	37532	27.831098280574	162
78	37550	27.832554280525	162
78	37568	27.83809028034	162
78	37606	27.861082279573	162
78	37716	27.920598274206	162
78	37734	27.925794274033	162
78	37752	27.92829027395	162
78	37772	27.935366273714	162
78	37793	27.952682273136	162
78	37812	27.965718272701	162
78	37908	28.021998267486	162
78	37927	28.035574267033	162
78	37945	28.038770266926	162
78	37965	28.05514626638	162
78	38001	28.079598265564	162
78	38019	28.08513426538	162
78	38082	28.119146260958	162
78	38101	28.139702260273	162
78	38119	28.147118260025	162
78	38138	28.154674259773	162
78	38158	28.172830259168	162
78	38176	28.175406259082	162
78	38196	28.190082258592	162
78	38258	28.222466254176	162
78	38277	28.242842253496	162
78	38295	28.250438253243	162
78	38315	28.270094252587	162
78	38334	28.283050252155	162
78	38352	28.289546251938	162
79	33978	26.26045438602	162
79	34218	26.442578372569	162
79	34269	26.459910608994	162
79	34714	26.690786357413	162
79	34894	26.751874353265	162
79	34912	26.753430353213	162
79	35176	26.835214347038	162
79	35211	26.857086346308	162
79	35426	26.946982339617	162
79	35480	26.974854338688	162
79	35515	26.991166338144	162
79	35661	27.031750333769	162
79	35697	27.053262333051	162
79	35715	27.057518332909	162
79	35735	27.069434332512	162
79	35754	27.082250332084	162
79	35925	27.11698632751	162
79	35980	27.133038518874	162
79	36000	27.14037451863	162
79	36067	27.155486708618	162
79	36261	27.226006320129	162
79	36282	27.238962319697	162
79	36301	27.250758319304	162
79	36319	27.256074319126	162
79	36484	27.344554313386	162
79	36503	27.35821031293	162
79	36539	27.392282311794	162
79	36669	27.437394307008	162
79	36704	27.463006306154	162
79	36741	27.492058305185	162
79	36759	27.494314305109	162
79	36971	27.567218299113	162
79	37007	27.586510298469	162
79	37025	27.589586298366	162
79	37102	27.610902294563	162
79	37124	27.625058294091	162
79	37143	27.640434293578	162
79	37179	27.653766293134	162
79	37215	27.671398292546	162
79	37340	27.718054287573	162
79	37396	27.764722286017	162
79	37415	27.77809828557	162
79	37434	27.796874284944	162
79	37513	27.816262281068	162
79	37532	27.831098280574	162
79	37550	27.832554280525	162
79	37568	27.83809028034	162
79	37606	27.861082279573	162
79	37716	27.920598274206	162
79	37734	27.925794274033	162
79	37752	27.92829027395	162
79	37772	27.935366273714	162
79	37793	27.952682273136	162
79	37812	27.965718272701	162
79	37908	28.021998267486	162
79	37927	28.035574267033	162
79	37945	28.038770266926	162
79	37965	28.05514626638	162
79	38001	28.079598265564	162
79	38019	28.08513426538	162
79	38082	28.119146260958	162
79	38101	28.139702260273	162
79	38119	28.147118260025	162
79	38138	28.154674259773	162
79	38158	28.172830259168	162
79	38176	28.175406259082	162
79	38196	28.190082258592	162
79	38258	28.222466254176	162
79	38277	28.242842253496	162
79	38295	28.250438253243	162
79	38315	28.270094252587	162
79	38334	28.283050252155	162
79	38352	28.289546251938	162

