version 2
run Mobility-0-20200521-14:53:56-2154
attr configname Mobility
attr datetime 20200521-14:53:56
attr experiment Mobility
attr inifile omnetpp.ini
attr iterationvars ""
attr iterationvarsf ""
attr measurement ""
attr network Network
attr processid 2154
attr repetition 0
attr replication #0
attr resultdir results
attr runnumber 0
attr seedset 0
param **.host*.mobility.typename "\"MassMobility\""
param **.host*.mobility.initFromDisplayString false
param **.host*.mobility.changeInterval "truncnormal(2s, 0.5s)"
param **.host*.mobility.angleDelta "normal(0deg, 30deg)"
param **.host*.mobility.speed "truncnormal(20mps, 8mps)"
param **.host*.mobility.updateInterval 100ms
param **.networkConfigurator.typename "\"NextHopNetworkConfigurator\""
param *.host[*].wlan[2].radio.displayCommunicationRange true
param *.visualizer.sceneVisualizer.descriptionFigure "\"title\""
param *.visualizer.mediumVisualizer.displaySignals true
param *.visualizer.physicalLinkVisualizer.displayLinks true
param *.host[*].wlan[0].radio.transmitter.communicationRange 500m
param *.host[*].wlan[0].radio.displayCommunicationRange true
param **.host[*].mobility.initialZ 0m
param **.host[0].mobility.initialX 100m
param **.host[0].mobility.initialY 100m
param **.host[1].mobility.initialX 200m
param **.host[1].mobility.initialY 100m
param **.host[2].mobility.initialX 100m
param **.host[2].mobility.initialY 200m
param **.host[3].mobility.initialX 150m
param **.host[3].mobility.initialY 150m
param **.constraintAreaMaxX 500m
param **.constraintAreaMaxY 500m
param **.constraintAreaMaxZ 0m
param **.constraintAreaMinX 0m
param **.constraintAreaMinY 0m
param **.constraintAreaMinZ 0m
param **.counter 4
param **.networkConfiguratorModule "\"networkConfigurator\""
param **.networkConfigurator.config "xmldoc(\"scenario.xml\")"
param **.host[*].hasIpv4 false
param **.host[*].hasIpv6 false
param **.host[*].hasGn true
param **.host[*].generic.typename "\"NextHopNetworkLayer\""
param **.host[*].generic.nextHop.hopLimit 4
param **.numApps 1
param **.radioMedium.pathLoss.typename "\"LogNormalShadowing\""
param **.radioMedium.pathLoss.alpha 3
param **.radioMedium.pathLoss.sigma 7
param **.host[0].app[0].typename "\"UdpSink\""
param **.host[0].app[0].localPort 7654
param **.host[1].app[0].typename "\"UdpSink\""
param **.host[1].app[0].localPort 7654
param **.host[2..3].app[0].typename "\"UdpBasicApp\""
param **.host[2..3].app[0].destPort 7654
param **.host[2..3].app[0].destAddresses "\"host[0]\""
param **.host[2..3].app[0].messageLength 100B
param **.host[2..3].app[0].startTime "uniform(0s, 10ms)"
param **.host[2..3].app[0].sendInterval 20ms
param **.host[2..3].app[0].packetName "\"CustomData\""

vector 0 Network.host[0].wlan[0].radio radioMode:vector ETV
attr interpolationmode sample-hold
attr source radioModeChanged
attr title "Radio mode, vector"
vector 1 Network.host[0].wlan[0].radio radioChannel:vector ETV
attr interpolationmode sample-hold
attr source radioChannelChanged
attr title "Radio channel, vector"
vector 2 Network.host[1].wlan[0].radio radioMode:vector ETV
attr interpolationmode sample-hold
attr source radioModeChanged
attr title "Radio mode, vector"
vector 3 Network.host[1].wlan[0].radio radioChannel:vector ETV
attr interpolationmode sample-hold
attr source radioChannelChanged
attr title "Radio channel, vector"
vector 4 Network.host[2].wlan[0].radio radioMode:vector ETV
attr interpolationmode sample-hold
attr source radioModeChanged
attr title "Radio mode, vector"
vector 5 Network.host[2].wlan[0].radio radioChannel:vector ETV
attr interpolationmode sample-hold
attr source radioChannelChanged
attr title "Radio channel, vector"
vector 6 Network.host[3].wlan[0].radio radioMode:vector ETV
attr interpolationmode sample-hold
attr source radioModeChanged
attr title "Radio mode, vector"
vector 7 Network.host[3].wlan[0].radio radioChannel:vector ETV
attr interpolationmode sample-hold
attr source radioChannelChanged
attr title "Radio channel, vector"
vector 8 Network.host[0].wlan[0].radio receptionState:vector ETV
attr interpolationmode sample-hold
attr source receptionStateChanged
attr title "Radio reception state, vector"
vector 9 Network.host[1].wlan[0].radio receptionState:vector ETV
attr interpolationmode sample-hold
attr source receptionStateChanged
attr title "Radio reception state, vector"
vector 10 Network.host[2].wlan[0].radio receptionState:vector ETV
attr interpolationmode sample-hold
attr source receptionStateChanged
attr title "Radio reception state, vector"
vector 11 Network.host[3].wlan[0].radio receptionState:vector ETV
attr interpolationmode sample-hold
attr source receptionStateChanged
attr title "Radio reception state, vector"
vector 12 Network.host[0].wlan[0].mac.dcf.recoveryProcedure contentionWindowChanged:vector ETV
attr interpolationmode sample-hold
attr title "contention window, vector"
vector 13 Network.host[1].wlan[0].mac.dcf.recoveryProcedure contentionWindowChanged:vector ETV
attr interpolationmode sample-hold
attr title "contention window, vector"
vector 14 Network.host[2].wlan[0].mac.dcf.recoveryProcedure contentionWindowChanged:vector ETV
attr interpolationmode sample-hold
attr title "contention window, vector"
vector 15 Network.host[3].wlan[0].mac.dcf.recoveryProcedure contentionWindowChanged:vector ETV
attr interpolationmode sample-hold
attr title "contention window, vector"
vector 16 Network.host[2].app[0] packetSent:vector(packetBytes) ETV
attr interpolationmode none
attr source packetSent
attr title "packets sent, vector(packetBytes)"
vector 17 Network.host[2].udp packetSent:vector(packetBytes) ETV
attr interpolationmode none
attr source packetSent
attr title "packets sent, vector(packetBytes)"
vector 18 Network.host[2].wlan[0].mac packetReceivedFromUpper:vector(packetBytes) ETV
attr interpolationmode none
attr title "packets received from upper layer, vector(packetBytes)"
vector 19 Network.host[2].wlan[0].mac.dcf.channelAccess.pendingQueue packetPushed:vector(packetBytes) ETV
attr interpolationmode none
attr title "packet pushed, vector(packetBytes)"
vector 20 Network.host[2].wlan[0].mac.dcf.channelAccess.pendingQueue queueLength:vector ETV
attr interpolationmode sample-hold
attr source "count(packetPushed) - count(packetPopped) - count(packetRemoved) - count(packetDropped)"
attr title "queue length, vector"
vector 21 Network.host[2].wlan[0].mac.dcf.channelAccess.contention backoffPeriodGenerated:vector ETV
attr interpolationmode none
attr title "backoff periods, vector"
vector 22 Network.host[2].wlan[0].mac.dcf.channelAccess.contention backoffActive:vector ETV
attr interpolationmode sample-hold
attr source count(backoffStarted)-count(backoffStopped)
attr title "backoff active, vector"
vector 23 Network.host[2].wlan[0].mac.dcf.channelAccess.pendingQueue packetPopped:vector(packetBytes) ETV
attr interpolationmode none
attr title "packet popped, vector(packetBytes)"
vector 24 Network.host[2].wlan[0].mac.dcf.channelAccess.pendingQueue queueingTime:vector ETV
attr interpolationmode none
attr source queueingTime(packetPopped)
attr title "queueing times, vector"
attr unit s
vector 25 Network.host[2].wlan[0].mac.dcf.channelAccess.inProgressFrames queueLength:vector ETV
attr interpolationmode sample-hold
attr source "count(packetEnqueued) - count(packetDequeued)"
attr title "queue length, vector"
vector 26 Network.host[2].wlan[0].mac.dcf datarateSelected:vector ETV
attr interpolationmode none
attr title "datarates selected, vector"
vector 27 Network.host[2].wlan[0].mac packetSentToLower:vector(packetBytes) ETV
attr interpolationmode none
attr title "packets sent to lower layer, vector(packetBytes)"
vector 28 Network.host[2].wlan[0].mac.dcf frameSequenceActive:vector ETV
attr interpolationmode sample-hold
attr source count(frameSequenceStarted)-count(frameSequenceFinished)
attr title "frame sequence active, vector"
vector 29 Network.host[2].wlan[0].radio transmissionState:vector ETV
attr interpolationmode sample-hold
attr source transmissionStateChanged
attr title "Radio transmission state, vector"
vector 30 Network.host[2].wlan[0].mac.dcf packetSentToPeer:vector(packetBytes) ETV
attr interpolationmode none
attr title "packets sent, vector(packetBytes)"
vector 31 Network.host[2].wlan[0].mac.dcf packetSentToPeerUnicast:vector(packetBytes) ETV
attr interpolationmode none
attr source ieee80211Unicast(packetSentToPeer)
attr title "packets sent: unicast, vector(packetBytes)"
vector 32 Network.host[2].wlan[0].mac.dcf packetSentToPeerWithoutRetry:vector(packetBytes) ETV
attr interpolationmode none
attr source ieee80211NotRetry(packetSentToPeer)
attr title "packets sent: without retry, vector(packetBytes)"
vector 33 Network.host[2].wlan[0].mac.rx nav:vector ETV
attr interpolationmode linear
attr source navChanged
attr title "network allocation vector, vector"
vector 34 Network.host[3].wlan[0].mac packetReceivedFromLower:vector(packetBytes) ETV
attr interpolationmode none
attr title "packets received from lower layer, vector(packetBytes)"
vector 35 Network.host[3].wlan[0].mac.rx nav:vector ETV
attr interpolationmode linear
attr source navChanged
attr title "network allocation vector, vector"
vector 36 Network.host[3].wlan[0].mac.dcf packetDrop:vector(packetBytes) ETV
attr interpolationmode none
attr source packetDropped
attr title "packet drops, vector(packetBytes)"
vector 37 Network.host[3].wlan[0].mac.dcf packetDropNotAddressedToUs:vector(packetBytes) ETV
attr interpolationmode none
attr source packetDropReasonIsNotAddressedToUs(packetDropped)
attr title "packet drops: not addressed to us, vector(packetBytes)"
vector 38 Network.host[3].wlan[0].mac packetDrop:vector(packetBytes) ETV
attr interpolationmode none
attr source packetDropped
attr title "packet drops, vector(packetBytes)"
vector 39 Network.host[3].wlan[0].mac packetDropNotAddressedToUs:vector(packetBytes) ETV
attr interpolationmode none
attr source packetDropReasonIsNotAddressedToUs(packetDropped)
attr title "packet drops: not addressed to us, vector(packetBytes)"
vector 40 Network.host[3].app[0] packetSent:vector(packetBytes) ETV
attr interpolationmode none
attr source packetSent
attr title "packets sent, vector(packetBytes)"
vector 41 Network.host[3].udp packetSent:vector(packetBytes) ETV
attr interpolationmode none
attr source packetSent
attr title "packets sent, vector(packetBytes)"
vector 42 Network.host[3].wlan[0].mac packetReceivedFromUpper:vector(packetBytes) ETV
attr interpolationmode none
attr title "packets received from upper layer, vector(packetBytes)"
vector 43 Network.host[3].wlan[0].mac.dcf.channelAccess.pendingQueue packetPushed:vector(packetBytes) ETV
attr interpolationmode none
attr title "packet pushed, vector(packetBytes)"
vector 44 Network.host[3].wlan[0].mac.dcf.channelAccess.pendingQueue queueLength:vector ETV
attr interpolationmode sample-hold
attr source "count(packetPushed) - count(packetPopped) - count(packetRemoved) - count(packetDropped)"
attr title "queue length, vector"
vector 45 Network.host[3].wlan[0].mac.dcf.channelAccess.contention backoffPeriodGenerated:vector ETV
attr interpolationmode none
attr title "backoff periods, vector"
vector 46 Network.host[3].wlan[0].mac.dcf.channelAccess.contention backoffActive:vector ETV
attr interpolationmode sample-hold
attr source count(backoffStarted)-count(backoffStopped)
attr title "backoff active, vector"
vector 47 Network.host[3].wlan[0].mac.dcf.channelAccess.pendingQueue packetPopped:vector(packetBytes) ETV
attr interpolationmode none
attr title "packet popped, vector(packetBytes)"
vector 48 Network.host[3].wlan[0].mac.dcf.channelAccess.pendingQueue queueingTime:vector ETV
attr interpolationmode none
attr source queueingTime(packetPopped)
attr title "queueing times, vector"
attr unit s
vector 49 Network.host[3].wlan[0].mac.dcf.channelAccess.inProgressFrames queueLength:vector ETV
attr interpolationmode sample-hold
attr source "count(packetEnqueued) - count(packetDequeued)"
attr title "queue length, vector"
vector 50 Network.host[3].wlan[0].mac.dcf datarateSelected:vector ETV
attr interpolationmode none
attr title "datarates selected, vector"
vector 51 Network.host[3].wlan[0].mac packetSentToLower:vector(packetBytes) ETV
attr interpolationmode none
attr title "packets sent to lower layer, vector(packetBytes)"
vector 52 Network.host[3].wlan[0].mac.dcf frameSequenceActive:vector ETV
attr interpolationmode sample-hold
attr source count(frameSequenceStarted)-count(frameSequenceFinished)
attr title "frame sequence active, vector"
vector 53 Network.host[3].wlan[0].radio transmissionState:vector ETV
attr interpolationmode sample-hold
attr source transmissionStateChanged
attr title "Radio transmission state, vector"
vector 54 Network.host[3].wlan[0].mac.dcf packetSentToPeer:vector(packetBytes) ETV
attr interpolationmode none
attr title "packets sent, vector(packetBytes)"
vector 55 Network.host[3].wlan[0].mac.dcf packetSentToPeerUnicast:vector(packetBytes) ETV
attr interpolationmode none
attr source ieee80211Unicast(packetSentToPeer)
attr title "packets sent: unicast, vector(packetBytes)"
vector 56 Network.host[3].wlan[0].mac.dcf packetSentToPeerWithoutRetry:vector(packetBytes) ETV
attr interpolationmode none
attr source ieee80211NotRetry(packetSentToPeer)
attr title "packets sent: without retry, vector(packetBytes)"
vector 57 Network.host[2].wlan[0].mac packetReceivedFromLower:vector(packetBytes) ETV
attr interpolationmode none
attr title "packets received from lower layer, vector(packetBytes)"
vector 58 Network.host[2].wlan[0].mac.dcf packetDrop:vector(packetBytes) ETV
attr interpolationmode none
attr source packetDropped
attr title "packet drops, vector(packetBytes)"
vector 59 Network.host[2].wlan[0].mac.dcf packetDropNotAddressedToUs:vector(packetBytes) ETV
attr interpolationmode none
attr source packetDropReasonIsNotAddressedToUs(packetDropped)
attr title "packet drops: not addressed to us, vector(packetBytes)"
vector 60 Network.host[2].wlan[0].mac packetDrop:vector(packetBytes) ETV
attr interpolationmode none
attr source packetDropped
attr title "packet drops, vector(packetBytes)"
vector 61 Network.host[2].wlan[0].mac packetDropNotAddressedToUs:vector(packetBytes) ETV
attr interpolationmode none
attr source packetDropReasonIsNotAddressedToUs(packetDropped)
attr title "packet drops: not addressed to us, vector(packetBytes)"
vector 62 Network.host[0].wlan[0].mac packetReceivedFromLower:vector(packetBytes) ETV
attr interpolationmode none
attr title "packets received from lower layer, vector(packetBytes)"
vector 63 Network.host[0].wlan[0].mac.dcf packetReceivedFromPeer:vector(packetBytes) ETV
attr interpolationmode none
attr title "packets received, vector(packetBytes)"
vector 64 Network.host[0].wlan[0].mac.dcf packetReceivedFromPeerUnicast:vector(packetBytes) ETV
attr interpolationmode none
attr source ieee80211Unicast(packetReceivedFromPeer)
attr title "packets received: unicast, vector(packetBytes)"
vector 65 Network.host[0].wlan[0].mac.dcf packetReceivedFromPeerWithoutRetry:vector(packetBytes) ETV
attr interpolationmode none
attr source ieee80211NotRetry(packetReceivedFromPeer)
attr title "packets received: without retry, vector(packetBytes)"
vector 66 Network.host[0].wlan[0].mac.dcf datarateSelected:vector ETV
attr interpolationmode none
attr title "datarates selected, vector"
vector 67 Network.host[0].wlan[0].mac packetSentToUpper:vector(packetBytes) ETV
attr interpolationmode none
attr title "packets sent to upper layer, vector(packetBytes)"
vector 68 Network.host[0].udp packetReceived:vector(packetBytes) ETV
attr interpolationmode none
attr source packetReceived
attr title "packets received, vector(packetBytes)"
vector 69 Network.host[0].udp passedUpPk:vector(count) ETV
attr interpolationmode none
attr source packetSentToUpper
attr title "packets passed up, vector(count)"
vector 70 Network.host[0].app[0] packetReceived:vector(packetBytes) ETV
attr interpolationmode none
attr source packetReceived
attr title "packets received, vector(packetBytes)"
vector 71 Network.host[0].app[0] endToEndDelay:vector ETV
attr interpolationmode none
attr source dataAge(packetReceived)
attr title "end-to-end delay, vector"
attr unit s
vector 72 Network.host[0].app[0] rcvdPkSeqNo:vector ETV
attr interpolationmode none
attr source appPkSeqNo(packetReceived)
attr title "received packet sequence number, vector"
vector 73 Network.host[1].wlan[0].mac packetReceivedFromLower:vector(packetBytes) ETV
attr interpolationmode none
attr title "packets received from lower layer, vector(packetBytes)"
vector 74 Network.host[1].wlan[0].mac.rx nav:vector ETV
attr interpolationmode linear
attr source navChanged
attr title "network allocation vector, vector"
vector 75 Network.host[1].wlan[0].mac.dcf packetDrop:vector(packetBytes) ETV
attr interpolationmode none
attr source packetDropped
attr title "packet drops, vector(packetBytes)"
vector 76 Network.host[1].wlan[0].mac.dcf packetDropNotAddressedToUs:vector(packetBytes) ETV
attr interpolationmode none
attr source packetDropReasonIsNotAddressedToUs(packetDropped)
attr title "packet drops: not addressed to us, vector(packetBytes)"
vector 77 Network.host[1].wlan[0].mac packetDrop:vector(packetBytes) ETV
attr interpolationmode none
attr source packetDropped
attr title "packet drops, vector(packetBytes)"
vector 78 Network.host[1].wlan[0].mac packetDropNotAddressedToUs:vector(packetBytes) ETV
attr interpolationmode none
attr source packetDropReasonIsNotAddressedToUs(packetDropped)
attr title "packet drops: not addressed to us, vector(packetBytes)"
vector 79 Network.host[0].wlan[0].mac packetSentToLower:vector(packetBytes) ETV
attr interpolationmode none
attr title "packets sent to lower layer, vector(packetBytes)"
vector 80 Network.host[0].wlan[0].radio transmissionState:vector ETV
attr interpolationmode sample-hold
attr source transmissionStateChanged
attr title "Radio transmission state, vector"
vector 81 Network.host[0].wlan[0].mac.dcf packetSentToPeer:vector(packetBytes) ETV
attr interpolationmode none
attr title "packets sent, vector(packetBytes)"
vector 82 Network.host[0].wlan[0].mac.dcf packetSentToPeerUnicast:vector(packetBytes) ETV
attr interpolationmode none
attr source ieee80211Unicast(packetSentToPeer)
attr title "packets sent: unicast, vector(packetBytes)"
vector 83 Network.host[0].wlan[0].mac.dcf packetSentToPeerWithoutRetry:vector(packetBytes) ETV
attr interpolationmode none
attr source ieee80211NotRetry(packetSentToPeer)
attr title "packets sent: without retry, vector(packetBytes)"
vector 84 Network.host[2].wlan[0].mac.dcf packetSentToPeerWithRetry:vector(packetBytes) ETV
attr interpolationmode none
attr source ieee80211Retry(packetSentToPeer)
attr title "packets sent: with retry, vector(packetBytes)"
vector 85 Network.host[0].wlan[0].mac.dcf packetReceivedFromPeerWithRetry:vector(packetBytes) ETV
attr interpolationmode none
attr source ieee80211Retry(packetReceivedFromPeer)
attr title "packets received: with retry, vector(packetBytes)"
vector 86 Network.host[2].wlan[0].mac.dcf packetReceivedFromPeer:vector(packetBytes) ETV
attr interpolationmode none
attr title "packets received, vector(packetBytes)"
vector 87 Network.host[2].wlan[0].mac.dcf packetReceivedFromPeerUnicast:vector(packetBytes) ETV
attr interpolationmode none
attr source ieee80211Unicast(packetReceivedFromPeer)
attr title "packets received: unicast, vector(packetBytes)"
vector 88 Network.host[2].wlan[0].mac.dcf packetReceivedFromPeerWithoutRetry:vector(packetBytes) ETV
attr interpolationmode none
attr source ieee80211NotRetry(packetReceivedFromPeer)
attr title "packets received: without retry, vector(packetBytes)"
vector 89 Network.host[2].wlan[0].mac.dcf.channelAccess.inProgressFrames queueingTime:vector ETV
attr interpolationmode none
attr source queueingTime(packetDequeued)
attr title "queueing times, vector"
vector 90 Network.host[3].wlan[0].mac.dcf packetSentToPeerWithRetry:vector(packetBytes) ETV
attr interpolationmode none
attr source ieee80211Retry(packetSentToPeer)
attr title "packets sent: with retry, vector(packetBytes)"
vector 91 Network.host[0].wlan[0].mac.dcf.recipientMacDataService packetDropDuplicateDetected:vector(packetBytes) ETV
attr interpolationmode none
attr source packetDropReasonIsDuplicateDetected(packetDropped)
attr title "packet drops: duplicate detected, vector(packetBytes)"
vector 92 Network.host[0].wlan[0].mac.dcf packetDrop:vector(packetBytes) ETV
attr interpolationmode none
attr source packetDropped
attr title "packet drops, vector(packetBytes)"
vector 93 Network.host[0].wlan[0].mac packetDrop:vector(packetBytes) ETV
attr interpolationmode none
attr source packetDropped
attr title "packet drops, vector(packetBytes)"
vector 94 Network.host[0].wlan[0].mac packetDropDuplicateDetected:vector(packetBytes) ETV
attr interpolationmode none
attr source packetDropReasonIsDuplicateDetected(packetDropped)
attr title "packet drops: duplicate detected, vector(packetBytes)"
vector 95 Network.host[3].wlan[0].mac.dcf packetReceivedFromPeer:vector(packetBytes) ETV
attr interpolationmode none
attr title "packets received, vector(packetBytes)"
vector 96 Network.host[3].wlan[0].mac.dcf packetReceivedFromPeerUnicast:vector(packetBytes) ETV
attr interpolationmode none
attr source ieee80211Unicast(packetReceivedFromPeer)
attr title "packets received: unicast, vector(packetBytes)"
vector 97 Network.host[3].wlan[0].mac.dcf packetReceivedFromPeerWithoutRetry:vector(packetBytes) ETV
attr interpolationmode none
attr source ieee80211NotRetry(packetReceivedFromPeer)
attr title "packets received: without retry, vector(packetBytes)"
vector 98 Network.host[3].wlan[0].mac.dcf.channelAccess.inProgressFrames queueingTime:vector ETV
attr interpolationmode none
attr source queueingTime(packetDequeued)
attr title "queueing times, vector"
vector 99 Network.host[0].app[0] throughput:vector ETV
attr source throughput(packetReceived)
attr title "throughput, vector"
attr unit bps
vector 100 Network.host[2].wlan[0].mac.dcf packetDropRetryLimitReached:vector(packetBytes) ETV
attr interpolationmode none
attr source packetDropReasonIsRetryLimitReached(packetDropped)
attr title "packet drops: retry limit reached, vector(packetBytes)"
vector 101 Network.host[2].wlan[0].mac packetDropRetryLimitReached:vector(packetBytes) ETV
attr interpolationmode none
attr source packetDropReasonIsRetryLimitReached(packetDropped)
attr title "packet drops: retry limit reached, vector(packetBytes)"
vector 102 Network.host[3].wlan[0].mac packetDropIncorrectlyReceived:vector(packetBytes) ETV
attr interpolationmode none
attr source packetDropReasonIsIncorrectlyReceived(packetDropped)
attr title "packet drops: incorrectly received, vector(packetBytes)"
0	0	0	0
0	0	0	0
0	0	0	2
0	53	0.008711128745	3
0	61	0.008745128745	2
0	105	0.010123462036	3
0	113	0.010157462036	2
0	169	0.014971599664	3
0	177	0.015005599664	2
0	207	0.023067599581	3
0	214	0.023101599581	2
0	246	0.028534990961	3
0	254	0.028568990961	2
0	283	0.028811462105	3
0	290	0.028845462105	2
0	381	0.050243458733	3
0	389	0.050277458733	2
0	414	0.051039929432	3
0	421	0.051073929432	2
0	445	0.051975929422	3
0	453	0.052009929422	2
0	493	0.068534990899	3
0	501	0.068568990899	2
0	531	0.068771461236	3
0	539	0.068805461236	2
0	559	0.069847461225	3
0	566	0.069881461225	2
0	603	0.088534990868	3
0	611	0.088568990868	2
0	642	0.089191124733	3
0	650	0.089225124733	2
0	689	0.108534990837	3
0	697	0.108568990837	2
0	727	0.109151123737	3
0	735	0.109185123737	2
0	805	0.121815123613	3
0	813	0.121849123613	2
0	836	0.125971123573	3
0	843	0.126005123573	2
0	927	0.130267122733	3
0	935	0.130301122733	2
0	980	0.136479452182	3
0	987	0.136513452182	2
0	1031	0.145791452167	3
0	1039	0.145825452167	2
0	1091	0.148671690584	3
0	1099	0.148705690584	2
0	1261	0.170583690375	3
0	1269	0.170617690375	2
0	1293	0.171140018548	3
0	1300	0.171174018548	2
0	1340	0.171832018546	3
0	1347	0.171866018546	2
0	1413	0.184940018526	3
0	1421	0.184974018526	2
0	1454	0.188671690205	3
0	1461	0.188705690205	2
0	1491	0.203788356726	3
0	1499	0.203822356726	2
0	1592	0.208847690016	3
0	1606	0.208881690016	2
0	1637	0.210125151301	3
0	1645	0.210159151301	2
0	1698	0.225437478183	3
0	1705	0.225471478183	2
0	1739	0.228671689833	3
0	1746	0.228705689833	2
0	1790	0.234264356247	3
0	1798	0.234298356247	2
0	1835	0.235596356245	3
0	1843	0.235630356245	2
0	1870	0.236213022646	3
0	1878	0.236247022646	2
0	1933	0.243101022635	3
0	1940	0.243135022635	2
0	1999	0.248671689651	3
0	2007	0.248705689651	2
0	2030	0.251508015312	3
0	2038	0.251542015312	2
0	2196	0.270703689452	3
0	2204	0.270737689452	2
0	2230	0.272740014402	3
0	2238	0.272774014402	2
0	2327	0.29234368926	3
0	2335	0.29237768926	2
0	2358	0.299420355478	3
0	2366	0.299454355478	2
0	2399	0.305456355468	3
0	2407	0.305490355468	2
0	2459	0.309407689109	3
0	2468	0.309441689109	2
0	2511	0.32674001278	3
0	2519	0.32677401278	2
0	2560	0.328072678902	3
0	2568	0.328106678902	2
0	2620	0.328671688941	3
0	2628	0.328705688941	2
0	2668	0.329343688936	3
0	2675	0.329377688936	2
0	2697	0.332860355047	3
0	2705	0.332894355047	2
0	2772	0.34386835503	3
0	2780	0.34390235503	2
0	2805	0.344585021101	3
0	2813	0.344619021101	2
0	2881	0.348671688769	3
0	2889	0.348705688769	2
0	2934	0.356444354815	3
0	2942	0.356478354815	2
0	2967	0.364960354802	3
0	2975	0.364994354802	2
0	3047	0.36888801036	3
0	3055	0.36892201036	2
0	3081	0.369164475156	3
0	3088	0.369198475156	2
0	3129	0.370117261674	3
0	3137	0.370151261674	2
0	3157	0.371473261662	3
0	3164	0.371507261662	2
0	3213	0.374789261635	3
0	3220	0.374823261635	2
0	3307	0.389307688426	3
0	3315	0.389341688426	2
0	3336	0.390203688418	3
0	3344	0.390237688418	2
0	3366	0.393919688387	3
0	3374	0.393953688387	2
0	3395	0.396736354304	3
0	3403	0.396770354304	2
0	3428	0.396993020216	3
0	3435	0.397027020216	2
0	3475	0.398045805359	3
0	3483	0.398079805359	2
0	3563	0.406610126144	3
0	3570	0.406644126144	2
0	3613	0.408671688265	3
0	3621	0.408705688265	2
0	3657	0.411963688238	3
0	3665	0.411997688238	2
0	3741	0.4288676881	3
0	3749	0.4289016881	2
0	3808	0.438996007866	3
0	3816	0.439030007866	2
0	3842	0.439172673652	3
0	3850	0.439206673652	2
0	3871	0.439488673651	3
0	3878	0.439522673651	2
0	3903	0.440125339434	3
0	3911	0.440159339434	2
0	3942	0.44853499032	3
0	3950	0.44856899032	2
0	3982	0.449011453801	3
0	3991	0.449045453801	2
0	4049	0.451420119553	3
0	4057	0.451454119553	2
0	4093	0.46853499029	3
0	4100	0.46856899029	2
0	4128	0.46867168778	3
0	4135	0.46870568778	2
0	4155	0.469230990289	3
0	4163	0.469264990289	2
0	4184	0.471786990285	3
0	4192	0.471820990285	2
0	4237	0.484978990265	3
0	4245	0.485012990265	2
0	4291	0.489394990259	3
0	4299	0.489428990259	2
0	4341	0.490307105229	3
0	4349	0.490341105229	2
0	4420	0.499331422962	3
0	4428	0.499365422962	2
0	4459	0.501787422958	3
0	4467	0.501821422958	2
0	4499	0.50853499023	3
0	4506	0.50856899023	2
0	4555	0.509347452763	3
0	4563	0.509381452763	2
0	4677	0.528671687313	3
0	4685	0.528705687313	2
0	4726	0.530704352828	3
0	4734	0.530738352828	2
0	4806	0.536448352819	3
0	4813	0.536482352819	2
0	4874	0.548671687162	3
0	4882	0.548705687162	2
0	4904	0.549487687156	3
0	4912	0.549521687156	2
0	4934	0.551323687142	3
0	4942	0.551357687142	2
0	4979	0.556736464639	3
0	4986	0.556770464639	2
0	5008	0.557452464633	3
0	5016	0.557486464633	2
0	5063	0.568671687013	3
0	5071	0.568705687013	2
0	5110	0.574224002131	3
0	5117	0.574258002131	2
0	5160	0.575556667511	3
0	5167	0.575590667511	2
0	5205	0.588534990111	3
0	5213	0.588568990111	2
0	5244	0.588751451446	3
0	5252	0.588785451446	2
0	5288	0.591103765894	3
0	5296	0.591137765894	2
0	5361	0.606131765872	3
0	5369	0.606165765872	2
0	5419	0.608671686721	3
0	5426	0.608705686721	2
0	5450	0.609467686715	3
0	5458	0.609501686715	2
0	5484	0.610144000467	3
0	5492	0.610178000467	2
0	5513	0.611340000465	3
0	5521	0.611374000465	2
0	5601	0.629107098697	3
0	5608	0.629141098697	2
0	5633	0.629287411794	3
0	5641	0.629321411794	2
0	5677	0.632639520386	3
0	5684	0.632673520386	2
0	5708	0.633255520382	3
0	5716	0.633289520382	2
0	5845	0.651259517873	3
0	5852	0.651293517873	2
0	5878	0.653056183025	3
0	5886	0.653090183025	2
0	6022	0.673219096814	3
0	6029	0.673253096814	2
0	6079	0.683371761889	3
0	6086	0.683405761889	2
0	6155	0.689227686159	3
0	6163	0.689261686159	2
0	6202	0.692819997203	3
0	6210	0.692853997203	2
0	6307	0.709527686023	3
0	6314	0.709561686023	2
0	6392	0.725652350983	3
0	6400	0.725686350983	2
0	6488	0.730183507867	3
0	6495	0.730217507867	2
0	6557	0.737215403745	3
0	6565	0.737249403745	2
0	6660	0.750843685753	3
0	6668	0.750877685753	2
0	6735	0.753832097755	3
0	6743	0.753866097755	2
0	6851	0.768671685639	3
0	6858	0.768705685639	2
0	6882	0.769467685634	3
0	6890	0.769501685634	2
0	6914	0.770503685627	3
0	6922	0.770537685627	2
0	6981	0.788671685513	3
0	6988	0.788705685513	2
0	7026	0.789743685507	3
0	7034	0.789777685507	2
0	7057	0.790999685499	3
0	7065	0.791033685499	2
0	7086	0.791915685493	3
0	7093	0.791949685493	2
0	7118	0.796315993052	3
0	7125	0.796349993052	2
0	7152	0.797112657781	3
0	7160	0.797146657781	2
0	7181	0.79776865778	3
0	7189	0.79780265778	2
0	7337	0.809447685385	3
0	7345	0.809481685385	2
0	7368	0.810683685378	3
0	7376	0.810717685378	2
0	7419	0.817675685335	3
0	7427	0.817709685335	2
0	7507	0.829927685261	3
0	7515	0.829961685261	2
0	7550	0.831003685255	3
0	7558	0.831037685255	2
0	7582	0.831739991431	3
0	7590	0.831773991431	2
0	7650	0.834928656055	3
0	7658	0.834962656055	2
0	7719	0.84867168515	3
0	7727	0.84870568515	2
0	7752	0.849807990713	3
0	7760	0.849841990713	2
0	7830	0.869291087721	3
0	7838	0.869325087721	2
0	7944	0.888671684918	3
0	7952	0.888705684918	2
0	7978	0.897427989079	3
0	7986	0.897461989079	2
0	8114	0.909467684801	3
0	8122	0.909501684801	2
0	8232	0.92970368469	3
0	8239	0.92973768469	2
0	8328	0.949787684581	3
0	8336	0.949821684581	2
0	8458	0.972559684461	3
0	8466	0.972593684461	2
0	8488	0.977575684435	3
0	8496	0.977609684435	2
0	8539	0.988671684377	3
0	8547	0.988705684377	2
0	8656	1.009167684273	3
0	8663	1.009201684273	2
0	8707	1.01996398422	3
0	8715	1.01999798422	2
0	8755	1.020836648307	3
0	8763	1.020870648307	2
0	8785	1.023252648303	3
0	8793	1.023286648303	2
0	8878	1.029787684171	3
0	8886	1.029821684171	2
0	8920	1.040383983369	3
0	8928	1.040417983369	2
0	8970	1.044175983364	3
0	8978	1.044209983364	2
0	9052	1.047200647379	3
0	9060	1.047234647379	2
0	9085	1.047737311389	3
0	9093	1.047771311389	2
0	9127	1.048671684079	3
0	9135	1.048705684079	2
0	9157	1.049067684077	3
0	9165	1.049101684077	2
0	9189	1.049464348082	3
0	9197	1.049498348082	2
0	9332	1.06952768398	3
0	9340	1.06956168398	2
0	9435	1.075648347919	3
0	9443	1.075682347919	2
0	9519	1.089647683887	3
0	9527	1.089681683887	2
1	0	0	0
2	0	0	0
2	0	0	0
2	0	0	2
3	0	0	0
4	0	0	0
4	0	0	0
4	0	0	2
4	13	0.008442657441	3
4	19	0.008524657441	2
4	70	0.009155128488	3
4	76	0.009237128488	2
4	88	0.010031128488	3
4	94	0.010113128488	2
4	229	0.028442657441	3
4	235	0.028524657441	2
4	309	0.048442657441	3
4	315	0.048524657441	2
4	332	0.048618657441	3
4	338	0.048700657441	2
4	364	0.050151125247	3
4	370	0.050233125247	2
4	476	0.068442657441	3
4	482	0.068524657441	2
4	585	0.088442657441	3
4	591	0.088524657441	2
4	672	0.108442657441	3
4	678	0.108524657441	2
4	856	0.128442657441	3
4	862	0.128524657441	2
4	877	0.128778657441	3
4	883	0.128860657441	2
4	944	0.131151118829	3
4	950	0.131233118829	2
4	964	0.136387118829	3
4	970	0.136469118829	2
4	1002	0.142043118829	3
4	1008	0.142125118829	2
4	1018	0.145699118829	3
4	1024	0.145781118829	2
4	1055	0.148442657441	3
4	1061	0.148524657441	2
4	1106	0.148815686122	3
4	1112	0.148897686122	2
4	1122	0.150091686122	3
4	1128	0.150173686122	2
4	1139	0.153667686122	3
4	1145	0.153749686122	2
4	1157	0.154283686122	3
4	1163	0.154365686122	2
4	1182	0.167519686122	3
4	1188	0.167601686122	2
4	1276	0.171047685248	3
4	1282	0.171129685248	2
4	1309	0.171403685248	3
4	1315	0.171485685248	2
4	1323	0.171739685248	3
4	1329	0.171821685248	2
4	1356	0.173535685248	3
4	1362	0.173617685248	2
4	1374	0.174831685248	3
4	1380	0.174913685248	2
4	1399	0.184847685248	3
4	1406	0.184929685248	2
4	1478	0.203696023477	3
4	1484	0.203778023477	2
4	1507	0.204192689975	3
4	1513	0.204274689975	2
4	1521	0.205228689975	3
4	1527	0.205310689975	2
4	1537	0.207224689975	3
4	1543	0.207306689975	2
4	1599	0.208880689975	3
4	1614	0.208962689975	2
4	1654	0.213269144967	3
4	1660	0.213351144967	2
4	1682	0.225345144967	3
4	1688	0.225427144967	2
4	1755	0.233456023044	3
4	1761	0.233538023044	2
4	1773	0.234172023044	3
4	1779	0.234254023044	2
4	1806	0.235248023044	3
4	1812	0.235330023044	2
4	1822	0.235504023044	3
4	1828	0.235586023044	2
4	1852	0.236120689446	3
4	1858	0.236202689446	2
4	1887	0.237456689446	3
4	1893	0.237538689446	2
4	1903	0.239512689446	3
4	1909	0.239594689446	2
4	1921	0.243008689446	3
4	1927	0.243090689446	2
4	1956	0.247564689446	3
4	1962	0.247646689446	2
4	2016	0.251415682135	3
4	2022	0.251497682135	2
4	2049	0.255011682135	3
4	2055	0.255093682135	2
4	2065	0.255567682135	3
4	2071	0.255649682135	2
4	2081	0.256923682135	3
4	2087	0.257005682135	2
4	2097	0.257519682135	3
4	2103	0.257601682135	2
4	2118	0.262695682135	3
4	2124	0.262777682135	2
4	2213	0.272647681258	3
4	2219	0.272729681258	2
4	2252	0.285683681258	3
4	2258	0.285765681258	2
4	2345	0.299328022374	3
4	2351	0.299410022374	2
4	2382	0.305364022374	3
4	2388	0.305446022374	2
4	2480	0.316031679718	3
4	2486	0.316113679718	2
4	2498	0.326647679718	3
4	2504	0.326729679718	2
4	2528	0.327304345842	3
4	2534	0.327386345842	2
4	2542	0.327980345842	3
4	2548	0.328062345842	2
4	2578	0.328156345842	3
4	2584	0.328238345842	2
4	2684	0.332768021994	3
4	2690	0.332850021994	2
4	2721	0.338924021994	3
4	2727	0.339006021994	2
4	2738	0.341500021994	3
4	2744	0.341582021994	2
4	2758	0.343776021994	3
4	2764	0.343858021994	2
4	2788	0.344492688066	3
4	2794	0.344574688066	2
4	2821	0.345188688066	3
4	2827	0.345270688066	2
4	2837	0.347904688066	3
4	2843	0.347986688066	2
4	2899	0.349936021798	3
4	2905	0.350018021798	2
4	2921	0.356352021798	3
4	2927	0.356434021798	2
4	2954	0.364868021798	3
4	2960	0.364950021798	2
4	2986	0.368204021798	3
4	2992	0.368286021798	2
4	3030	0.368795677362	3
4	3036	0.368877677362	2
4	3098	0.369408808154	3
4	3104	0.369490808154	2
4	3172	0.37222159467	3
4	3178	0.37230359467	2
4	3186	0.37313759467	3
4	3192	0.37321959467	2
4	3230	0.37763359467	3
4	3236	0.37771559467	2
4	3382	0.396644021348	3
4	3388	0.396726021348	2
4	3412	0.39690068726	3
4	3418	0.39698268726	2
4	3443	0.397097353172	3
4	3449	0.397179353172	2
4	3492	0.398209793202	3
4	3498	0.398291793202	2
4	3517	0.400745793202	3
4	3523	0.400827793202	2
4	3533	0.404581793202	3
4	3539	0.404663793202	2
4	3547	0.406517793202	3
4	3553	0.406599793202	2
4	3678	0.418947675644	3
4	3684	0.419029675644	2
4	3758	0.437091674973	3
4	3764	0.437173674973	2
4	3774	0.437707674973	3
4	3780	0.437789674973	2
4	3791	0.438903674973	3
4	3797	0.438985674973	2
4	3824	0.439080340759	3
4	3830	0.439162340759	2
4	3859	0.439396340759	3
4	3865	0.439478340759	2
4	3886	0.440033006543	3
4	3892	0.440115006543	2
4	3925	0.448442657441	3
4	3931	0.448524657441	2
4	4000	0.449135786679	3
4	4008	0.449217786679	2
4	4020	0.450191786679	3
4	4026	0.450273786679	2
4	4036	0.451327786679	3
4	4042	0.451409786679	2
4	4077	0.468442657441	3
4	4083	0.468524657441	2
4	4142	0.469138657441	3
4	4148	0.469220657441	2
4	4171	0.471694657441	3
4	4177	0.471776657441	2
4	4200	0.475590657441	3
4	4206	0.475672657441	2
4	4224	0.484886657441	3
4	4230	0.484968657441	2
4	4278	0.489302657441	3
4	4284	0.489384657441	2
4	4358	0.497311090159	3
4	4364	0.497393090159	2
4	4372	0.497767090159	3
4	4378	0.497849090159	2
4	4388	0.498523090159	3
4	4394	0.498605090159	2
4	4403	0.499239090159	3
4	4409	0.499321090159	2
4	4446	0.501695090159	3
4	4452	0.501777090159	2
4	4483	0.508442657441	3
4	4489	0.508524657441	2
4	4573	0.509531785551	3
4	4579	0.509613785551	2
4	4591	0.510407785551	3
4	4597	0.510489785551	2
4	4609	0.512763785551	3
4	4615	0.512845785551	2
4	4625	0.513699785551	3
4	4631	0.513781785551	2
4	4694	0.529956020072	3
4	4700	0.530038020072	2
4	4712	0.530612020072	3
4	4718	0.530694020072	2
4	4744	0.531308020072	3
4	4750	0.531390020072	2
4	4760	0.531944020072	3
4	4766	0.532026020072	2
4	4774	0.532660020072	3
4	4780	0.532742020072	2
4	4790	0.536356020072	3
4	4796	0.536438020072	2
4	4825	0.540792020072	3
4	4831	0.540874020072	2
4	4950	0.552748019867	3
4	4956	0.552830019867	2
4	5080	0.57055566944	3
4	5086	0.57063766944	2
4	5094	0.57413166944	3
4	5100	0.57421366944	2
4	5126	0.574888334822	3
4	5132	0.574970334822	2
4	5144	0.575464334822	3
4	5150	0.575546334822	2
4	5188	0.588442657441	3
4	5194	0.588524657441	2
4	5259	0.589375433228	3
4	5265	0.589457433228	2
4	5275	0.591011433228	3
4	5281	0.591093433228	2
4	5304	0.592307433228	3
4	5310	0.592389433228	2
4	5324	0.599043433228	3
4	5330	0.599125433228	2
4	5348	0.606039433228	3
4	5354	0.606121433228	2
4	5383	0.608442657441	3
4	5389	0.608524657441	2
4	5466	0.610051667829	3
4	5472	0.610133667829	2
4	5500	0.611247667829	3
4	5506	0.611329667829	2
4	5545	0.628442657441	3
4	5551	0.628524657441	2
4	5616	0.629195079184	3
4	5622	0.629277079184	2
4	5741	0.648442657441	3
4	5747	0.648524657441	2
4	5796	0.649351077596	3
4	5802	0.649433077596	2
4	5812	0.650767077596	3
4	5818	0.650849077596	2
4	5861	0.65296385045	3
4	5867	0.65304585045	2
4	5908	0.668442657441	3
4	5914	0.668524657441	2
4	5945	0.668935076038	3
4	5951	0.669017076038	2
4	5966	0.669691076038	3
4	5978	0.669773076038	2
4	6038	0.673543429359	3
4	6044	0.673625429359	2
4	6062	0.683279429359	3
4	6068	0.683361429359	2
4	6101	0.688442657441	3
4	6107	0.688524657441	2
4	6171	0.690111664686	3
4	6177	0.690193664686	2
4	6185	0.692727664686	3
4	6191	0.692809664686	2
4	6221	0.697923664686	3
4	6227	0.698005664686	2
4	6237	0.698779664686	3
4	6243	0.698861664686	2
4	6323	0.717112018515	3
4	6329	0.717194018515	2
4	6342	0.723668018515	3
4	6348	0.723750018515	2
4	6358	0.724184018515	3
4	6364	0.724266018515	2
4	6374	0.725560018515	3
4	6380	0.725642018515	2
4	6416	0.728442657441	3
4	6422	0.728524657441	2
4	6455	0.729875071293	3
4	6461	0.729957071293	2
4	6504	0.731071071293	3
4	6510	0.731153071293	2
4	6520	0.733607071293	3
4	6526	0.733689071293	2
4	6540	0.737123071293	3
4	6546	0.737205071293	2
4	6580	0.745919071293	3
4	6586	0.746001071293	2
4	6690	0.753147662263	3
4	6696	0.753229662263	2
4	6706	0.753523662263	3
4	6712	0.753605662263	2
4	6752	0.754656430182	3
4	6758	0.754738430182	2
4	6768	0.755272430182	3
4	6774	0.755354430182	2
4	6785	0.760168430182	3
4	6791	0.760250430182	2
4	6805	0.763364430182	3
4	6811	0.763446430182	2
4	6932	0.77508801803	3
4	6938	0.77517001803	2
4	7101	0.796223660686	3
4	7107	0.796305660686	2
4	7135	0.797020325417	3
4	7141	0.797102325417	2
4	7168	0.797676325417	3
4	7174	0.797758325417	2
4	7196	0.797912990143	3
4	7202	0.797994990143	2
4	7212	0.798308990143	3
4	7218	0.798390990143	2
4	7235	0.800984990143	3
4	7243	0.801066990143	2
4	7253	0.803320990143	3
4	7259	0.803402990143	2
4	7271	0.806936990143	3
4	7277	0.807018990143	2
4	7443	0.823580017669	3
4	7449	0.823662017669	2
4	7523	0.83069165916	3
4	7529	0.83077365916	2
4	7565	0.831647659117	3
4	7571	0.831729659117	2
4	7599	0.832324323745	3
4	7605	0.832406323745	2
4	7616	0.833680323745	3
4	7622	0.833762323745	2
4	7632	0.834836323745	3
4	7638	0.834918323745	2
4	7683	0.848442657441	3
4	7689	0.848524657441	2
4	7735	0.849715658425	3
4	7741	0.849797658425	2
4	7778	0.868442657441	3
4	7784	0.868524657441	2
4	7799	0.868718657441	3
4	7805	0.868800657441	2
4	7846	0.869535419981	3
4	7852	0.869617419981	2
4	7862	0.873431419981	3
4	7868	0.873513419981	2
4	7878	0.875407419981	3
4	7884	0.875489419981	2
4	7892	0.876923419981	3
4	7898	0.877005419981	2
4	7961	0.89733565686	3
4	7967	0.89741765686	2
4	7994	0.89765165686	3
4	8000	0.89773365686	2
4	8010	0.89856765686	3
4	8016	0.89864965686	2
4	8028	0.89996365686	3
4	8038	0.90004565686	2
4	8046	0.90217965686	3
4	8052	0.90226165686	2
4	8131	0.911011656047	3
4	8137	0.911093656047	2
4	8149	0.911447656047	3
4	8155	0.911529656047	2
4	8248	0.931783656047	3
4	8254	0.931865656047	2
4	8267	0.944679656047	3
4	8273	0.944761656047	2
4	8349	0.960432016725	3
4	8355	0.960514016725	2
4	8426	0.972227653674	3
4	8432	0.972309653674	2
4	8554	0.990275652955	3
4	8560	0.990357652955	2
4	8570	0.991551652955	3
4	8576	0.991633652955	2
4	8588	0.994907652955	3
4	8594	0.994989652955	2
4	8671	1.014075652176	3
4	8677	1.014157652176	2
4	8690	1.019871652176	3
4	8696	1.019953652176	2
4	8722	1.020388316264	3
4	8728	1.020470316264	2
4	8738	1.020744316264	3
4	8744	1.020826316264	2
4	8772	1.023160316264	3
4	8778	1.023242316264	2
4	8802	1.026416316264	3
4	8808	1.026498316264	2
4	8818	1.027812316264	3
4	8824	1.027894316264	2
4	8907	1.040291651354	3
4	8913	1.040373651354	2
4	8935	1.043727651354	3
4	8941	1.043809651354	2
4	8953	1.044083651354	3
4	8959	1.044165651354	2
4	8987	1.044680315374	3
4	8993	1.044762315374	2
4	9003	1.045416315374	3
4	9009	1.045498315374	2
4	9019	1.046392315374	3
4	9025	1.046474315374	2
4	9035	1.047108315374	3
4	9041	1.047190315374	2
4	9068	1.047644979384	3
4	9074	1.047726979384	2
4	9175	1.04937201608	3
4	9181	1.04945401608	2
4	9209	1.05198801608	3
4	9215	1.05207001608	2
4	9228	1.05430401608	3
4	9234	1.05438601608	2
4	9258	1.06234001608	3
4	9264	1.06242201608	2
4	9274	1.06379601608	3
4	9280	1.06387801608	2
4	9348	1.070412015954	3
4	9354	1.070494015954	2
4	9366	1.071128015954	3
4	9372	1.071210015954	2
4	9382	1.071584015954	3
4	9388	1.071666015954	2
4	9401	1.073740015954	3
4	9407	1.073822015954	2
4	9418	1.075556015954	3
4	9424	1.075638015954	2
4	9452	1.078672015954	3
4	9458	1.078754015954	2
5	0	0	0
6	0	0	0
6	0	0	0
6	0	0	2
6	35	0.008618892968	3
6	41	0.008700892968	2
6	121	0.010307363952	3
6	127	0.010389363952	2
6	139	0.011323363952	3
6	145	0.011405363952	2
6	155	0.014879363952	3
6	161	0.014961363952	2
6	195	0.022975363952	3
6	201	0.023057363952	2
6	267	0.028719226534	3
6	273	0.028801226534	2
6	348	0.04941489136	3
6	354	0.04949689136	2
6	397	0.050947694086	3
6	403	0.051029694086	2
6	431	0.051883694086	3
6	437	0.051965694086	2
6	514	0.068679226068	3
6	520	0.068761226068	2
6	547	0.069755226068	3
6	553	0.069837226068	2
6	625	0.089098889768	3
6	631	0.089180889768	2
6	710	0.109058888968	3
6	716	0.109140888968	2
6	742	0.109974888968	3
6	748	0.110056888968	2
6	758	0.111810888968	3
6	764	0.111892888968	2
6	772	0.115606888968	3
6	778	0.115688888968	2
6	791	0.121722888968	3
6	797	0.121804888968	2
6	823	0.125878888968	3
6	829	0.125960888968	2
6	891	0.12921888817	3
6	897	0.12930088817	2
6	909	0.13017488817	3
6	915	0.13025688817	2
6	1073	0.148579456198	3
6	1080	0.148661456198	2
6	1208	0.168579456198	3
6	1214	0.168661456198	2
6	1226	0.169295456198	3
6	1232	0.169377456198	2
6	1244	0.170491456198	3
6	1250	0.170573456198	2
6	1438	0.188579456198	3
6	1444	0.188661456198	2
6	1561	0.208579456198	3
6	1567	0.208661456198	2
6	1575	0.208755456198	3
6	1581	0.208837456198	2
6	1623	0.210032917494	3
6	1629	0.210114917494	2
6	1722	0.228579456198	3
6	1728	0.228661456198	2
6	1982	0.248579456198	3
6	1988	0.248661456198	2
6	2146	0.268579456198	3
6	2152	0.268661456198	2
6	2162	0.268995456198	3
6	2168	0.269077456198	2
6	2178	0.270611456198	3
6	2184	0.270693456198	2
6	2278	0.288579456198	3
6	2284	0.288661456198	2
6	2294	0.289715456198	3
6	2300	0.289797456198	2
6	2310	0.292251456198	3
6	2316	0.292333456198	2
6	2425	0.308579456198	3
6	2431	0.308661456198	2
6	2441	0.309315456198	3
6	2447	0.309397456198	2
6	2602	0.328579456198	3
6	2608	0.328661456198	2
6	2637	0.329055456198	3
6	2643	0.329137456198	2
6	2655	0.329251456198	3
6	2661	0.329333456198	2
6	2863	0.348579456198	3
6	2869	0.348661456198	2
6	3012	0.368579456198	3
6	3018	0.368661456198	2
6	3064	0.369072242759	3
6	3070	0.369154242759	2
6	3116	0.370025029285	3
6	3122	0.370107029285	2
6	3145	0.371381029285	3
6	3151	0.371463029285	2
6	3200	0.374697029285	3
6	3206	0.374779029285	2
6	3272	0.388579456198	3
6	3278	0.388661456198	2
6	3290	0.389215456198	3
6	3296	0.389297456198	2
6	3322	0.390111456198	3
6	3328	0.390193456198	2
6	3353	0.393827456198	3
6	3359	0.393909456198	2
6	3461	0.397953573204	3
6	3467	0.398035573204	2
6	3596	0.408579456198	3
6	3602	0.408661456198	2
6	3628	0.409935456198	3
6	3634	0.410017456198	2
6	3643	0.411871456198	3
6	3649	0.411953456198	2
6	3705	0.428579456198	3
6	3711	0.428661456198	2
6	3723	0.428775456198	3
6	3729	0.428857456198	2
6	3963	0.448919222062	3
6	3970	0.449001222062	2
6	4111	0.468579456198	3
6	4118	0.468661456198	2
6	4264	0.488579456198	3
6	4270	0.488661456198	2
6	4306	0.489858873818	3
6	4312	0.489940873818	2
6	4324	0.490214873818	3
6	4330	0.490296873818	2
6	4521	0.508819221499	3
6	4527	0.508901221499	2
6	4537	0.509255221499	3
6	4544	0.509337221499	2
6	4660	0.528579456198	3
6	4666	0.528661456198	2
6	4856	0.548579456198	3
6	4862	0.548661456198	2
6	4890	0.549395456198	3
6	4896	0.549477456198	2
6	4921	0.551231456198	3
6	4927	0.551313456198	2
6	4966	0.556644233735	3
6	4972	0.556726233735	2
6	4995	0.557360233735	3
6	5001	0.557442233735	2
6	5045	0.568579456198	3
6	5051	0.568661456198	2
6	5227	0.588659220779	3
6	5233	0.588741220779	2
6	5401	0.608579456198	3
6	5408	0.608661456198	2
6	5436	0.609375456198	3
6	5442	0.609457456198	2
6	5566	0.62883886832	3
6	5572	0.62892086832	2
6	5584	0.62901486832	3
6	5590	0.62909686832	2
6	5648	0.629611290034	3
6	5654	0.629693290034	2
6	5664	0.632547290034	3
6	5670	0.632629290034	2
6	5694	0.633163290034	3
6	5700	0.633245290034	2
6	5762	0.648958867532	3
6	5768	0.649040867532	2
6	5778	0.649134867532	3
6	5784	0.649216867532	2
6	5828	0.651167287651	3
6	5834	0.651249287651	2
6	5929	0.668658866744	3
6	5935	0.668740866744	2
6	5959	0.669654866744	3
6	5972	0.669736866744	2
6	5989	0.672090866744	3
6	5995	0.672172866744	2
6	6005	0.673126866744	3
6	6011	0.673208866744	2
6	6119	0.688579456198	3
6	6126	0.688661456198	2
6	6138	0.689135456198	3
6	6144	0.689217456198	2
6	6271	0.708579456198	3
6	6277	0.708661456198	2
6	6290	0.709435456198	3
6	6296	0.709517456198	2
6	6437	0.729238864383	3
6	6443	0.729320864383	2
6	6471	0.730091278178	3
6	6477	0.730173278178	2
6	6608	0.748579456198	3
6	6614	0.748661456198	2
6	6624	0.748875456198	3
6	6630	0.748957456198	2
6	6642	0.750751456198	3
6	6648	0.750833456198	2
6	6676	0.750967456198	3
6	6682	0.751049456198	2
6	6722	0.753739868219	3
6	6728	0.753821868219	2
6	6834	0.768579456198	3
6	6840	0.768661456198	2
6	6868	0.769375456198	3
6	6874	0.769457456198	2
6	6900	0.770411456198	3
6	6906	0.770493456198	2
6	6965	0.788579456198	3
6	6971	0.788661456198	2
6	6996	0.789275456198	3
6	7002	0.789357456198	2
6	7012	0.789651456198	3
6	7018	0.789733456198	2
6	7043	0.790907456198	3
6	7049	0.790989456198	2
6	7073	0.791823456198	3
6	7079	0.791905456198	2
6	7303	0.808579456198	3
6	7309	0.808661456198	2
6	7319	0.809355456198	3
6	7325	0.809437456198	2
6	7354	0.810591456198	3
6	7360	0.810673456198	2
6	7386	0.810847456198	3
6	7392	0.810929456198	2
6	7405	0.817583456198	3
6	7411	0.817665456198	2
6	7471	0.828579456198	3
6	7477	0.828661456198	2
6	7489	0.829835456198	3
6	7495	0.829917456198	2
6	7537	0.830911456198	3
6	7543	0.830993456198	2
6	7701	0.848579456198	3
6	7708	0.848661456198	2
6	7813	0.86919885889	3
6	7819	0.86928085889	2
6	7926	0.888579456198	3
6	7932	0.888661456198	2
6	8077	0.908579456198	3
6	8084	0.908661456198	2
6	8096	0.909375456198	3
6	8102	0.909457456198	2
6	8183	0.928579456198	3
6	8189	0.928661456198	2
6	8199	0.928935456198	3
6	8205	0.929017456198	2
6	8215	0.929611456198	3
6	8221	0.929693456198	2
6	8293	0.948579456198	3
6	8299	0.948661456198	2
6	8311	0.949695456198	3
6	8317	0.949777456198	2
6	8373	0.968579456198	3
6	8379	0.968661456198	2
6	8391	0.969615456198	3
6	8397	0.969697456198	2
6	8407	0.970131456198	3
6	8413	0.970213456198	2
6	8440	0.972467456198	3
6	8446	0.972549456198	2
6	8474	0.977483456198	3
6	8480	0.977565456198	2
6	8522	0.988579456198	3
6	8528	0.988661456198	2
6	8623	1.008579456198	3
6	8629	1.008661456198	2
6	8639	1.009075456198	3
6	8645	1.009157456198	2
6	8844	1.028579456198	3
6	8850	1.028661456198	2
6	8860	1.029695456198	3
6	8866	1.029777456198	2
6	9110	1.048579456198	3
6	9116	1.048661456198	2
6	9143	1.048975456198	3
6	9149	1.049057456198	2
6	9301	1.068579456198	3
6	9307	1.068661456198	2
6	9315	1.069435456198	3
6	9321	1.069517456198	2
6	9484	1.088579456198	3
6	9490	1.088661456198	2
6	9501	1.089555456198	3
6	9507	1.089637456198	2
6	9536	1.091091456198	3
6	9542	1.091173456198	2
6	9550	1.092607456198	3
7	0	0	0
8	0	0	1
8	38	0.008619128745	3
8	44	0.008701128745	1
8	53	0.008711128745	0
8	61	0.008745128745	1
8	91	0.010031462036	3
8	97	0.010113462036	1
8	105	0.010123462036	0
8	113	0.010157462036	1
8	158	0.014879599664	3
8	164	0.014961599664	1
8	169	0.014971599664	0
8	177	0.015005599664	1
8	198	0.022975599581	3
8	203	0.023057599581	1
8	207	0.023067599581	0
8	214	0.023101599581	1
8	232	0.028442990961	3
8	238	0.028524990961	1
8	246	0.028534990961	0
8	254	0.028568990961	1
8	270	0.028719462105	3
8	275	0.028801462105	1
8	283	0.028811462105	0
8	290	0.028845462105	1
8	367	0.050151458733	3
8	373	0.050233458733	1
8	381	0.050243458733	0
8	389	0.050277458733	1
8	400	0.050947929432	3
8	405	0.051029929432	1
8	414	0.051039929432	0
8	421	0.051073929432	1
8	434	0.051883929422	3
8	440	0.051965929422	1
8	445	0.051975929422	0
8	453	0.052009929422	1
8	479	0.068442990899	3
8	485	0.068524990899	1
8	493	0.068534990899	0
8	501	0.068568990899	1
8	517	0.068679461236	3
8	523	0.068761461236	1
8	531	0.068771461236	0
8	539	0.068805461236	1
8	550	0.069755461225	3
8	555	0.069837461225	1
8	559	0.069847461225	0
8	566	0.069881461225	1
8	588	0.088442990868	3
8	594	0.088524990868	1
8	603	0.088534990868	0
8	611	0.088568990868	1
8	628	0.089099124733	3
8	634	0.089181124733	1
8	642	0.089191124733	0
8	650	0.089225124733	1
8	675	0.108442990837	3
8	681	0.108524990837	1
8	689	0.108534990837	0
8	697	0.108568990837	1
8	713	0.109059123737	3
8	719	0.109141123737	1
8	727	0.109151123737	0
8	735	0.109185123737	1
8	794	0.121723123613	3
8	800	0.121805123613	1
8	805	0.121815123613	0
8	813	0.121849123613	1
8	826	0.125879123573	3
8	831	0.125961123573	1
8	836	0.125971123573	0
8	843	0.126005123573	1
8	912	0.130175122733	3
8	918	0.130257122733	1
8	927	0.130267122733	0
8	935	0.130301122733	1
8	967	0.136387452182	3
8	972	0.136469452182	1
8	980	0.136479452182	0
8	987	0.136513452182	1
8	1021	0.145699452167	3
8	1027	0.145781452167	1
8	1031	0.145791452167	0
8	1039	0.145825452167	1
8	1077	0.148579690584	3
8	1083	0.148661690584	1
8	1091	0.148671690584	0
8	1099	0.148705690584	1
8	1247	0.170491690375	3
8	1253	0.170573690375	1
8	1261	0.170583690375	0
8	1269	0.170617690375	1
8	1279	0.171048018548	3
8	1284	0.171130018548	1
8	1293	0.171140018548	0
8	1300	0.171174018548	1
8	1326	0.171740018546	3
8	1331	0.171822018546	1
8	1340	0.171832018546	0
8	1347	0.171866018546	1
8	1402	0.184848018526	3
8	1409	0.184930018526	1
8	1413	0.184940018526	0
8	1421	0.184974018526	1
8	1441	0.188579690205	3
8	1446	0.188661690205	1
8	1454	0.188671690205	0
8	1461	0.188705690205	1
8	1481	0.203696356726	3
8	1487	0.203778356726	1
8	1491	0.203788356726	0
8	1499	0.203822356726	1
8	1578	0.208755690016	3
8	1583	0.208837690016	1
8	1592	0.208847690016	0
8	1606	0.208881690016	2
8	1617	0.208963023216	1
8	1626	0.210033151301	3
8	1632	0.210115151301	1
8	1637	0.210125151301	0
8	1645	0.210159151301	1
8	1685	0.225345478183	3
8	1690	0.225427478183	1
8	1698	0.225437478183	0
8	1705	0.225471478183	1
8	1725	0.228579689833	3
8	1730	0.228661689833	1
8	1739	0.228671689833	0
8	1746	0.228705689833	1
8	1776	0.234172356247	3
8	1782	0.234254356247	1
8	1790	0.234264356247	0
8	1798	0.234298356247	1
8	1825	0.235504356245	3
8	1831	0.235586356245	1
8	1835	0.235596356245	0
8	1843	0.235630356245	1
8	1855	0.236121022646	3
8	1861	0.236203022646	1
8	1870	0.236213022646	0
8	1878	0.236247022646	1
8	1924	0.243009022635	3
8	1929	0.243091022635	1
8	1933	0.243101022635	0
8	1940	0.243135022635	1
8	1985	0.248579689651	3
8	1991	0.248661689651	1
8	1999	0.248671689651	0
8	2007	0.248705689651	1
8	2019	0.251416015312	3
8	2025	0.251498015312	1
8	2030	0.251508015312	0
8	2038	0.251542015312	1
8	2181	0.270611689452	3
8	2187	0.270693689452	1
8	2196	0.270703689452	0
8	2204	0.270737689452	1
8	2216	0.272648014402	3
8	2222	0.272730014402	1
8	2230	0.272740014402	0
8	2238	0.272774014402	1
8	2313	0.29225168926	3
8	2319	0.29233368926	1
8	2327	0.29234368926	0
8	2335	0.29237768926	1
8	2348	0.299328355478	3
8	2354	0.299410355478	1
8	2358	0.299420355478	0
8	2366	0.299454355478	1
8	2385	0.305364355468	3
8	2391	0.305446355468	1
8	2399	0.305456355468	0
8	2407	0.305490355468	1
8	2444	0.309315689109	3
8	2450	0.309397689109	1
8	2459	0.309407689109	0
8	2468	0.309441689109	1
8	2501	0.32664801278	3
8	2507	0.32673001278	1
8	2511	0.32674001278	0
8	2519	0.32677401278	1
8	2545	0.327980678902	3
8	2551	0.328062678902	1
8	2560	0.328072678902	0
8	2568	0.328106678902	1
8	2605	0.328579688941	3
8	2611	0.328661688941	1
8	2620	0.328671688941	0
8	2628	0.328705688941	1
8	2658	0.329251688936	3
8	2663	0.329333688936	1
8	2668	0.329343688936	0
8	2675	0.329377688936	1
8	2687	0.332768355047	3
8	2693	0.332850355047	1
8	2697	0.332860355047	0
8	2705	0.332894355047	1
8	2761	0.34377635503	3
8	2767	0.34385835503	1
8	2772	0.34386835503	0
8	2780	0.34390235503	1
8	2791	0.344493021101	3
8	2797	0.344575021101	1
8	2805	0.344585021101	0
8	2813	0.344619021101	1
8	2866	0.348579688769	3
8	2872	0.348661688769	1
8	2881	0.348671688769	0
8	2889	0.348705688769	1
8	2924	0.356352354815	3
8	2930	0.356434354815	1
8	2934	0.356444354815	0
8	2942	0.356478354815	1
8	2957	0.364868354802	3
8	2963	0.364950354802	1
8	2967	0.364960354802	0
8	2975	0.364994354802	1
8	3033	0.36879601036	3
8	3039	0.36887801036	1
8	3047	0.36888801036	0
8	3055	0.36892201036	1
8	3067	0.369072475156	3
8	3072	0.369154475156	1
8	3081	0.369164475156	0
8	3088	0.369198475156	1
8	3119	0.370025261674	3
8	3125	0.370107261674	1
8	3129	0.370117261674	0
8	3137	0.370151261674	1
8	3148	0.371381261662	3
8	3153	0.371463261662	1
8	3157	0.371473261662	0
8	3164	0.371507261662	1
8	3203	0.374697261635	3
8	3208	0.374779261635	1
8	3213	0.374789261635	0
8	3220	0.374823261635	1
8	3293	0.389215688426	3
8	3299	0.389297688426	1
8	3307	0.389307688426	0
8	3315	0.389341688426	1
8	3325	0.390111688418	3
8	3331	0.390193688418	1
8	3336	0.390203688418	0
8	3344	0.390237688418	1
8	3356	0.393827688387	3
8	3362	0.393909688387	1
8	3366	0.393919688387	0
8	3374	0.393953688387	1
8	3385	0.396644354304	3
8	3391	0.396726354304	1
8	3395	0.396736354304	0
8	3403	0.396770354304	1
8	3415	0.396901020216	3
8	3420	0.396983020216	1
8	3428	0.396993020216	0
8	3435	0.397027020216	1
8	3464	0.397953805359	3
8	3470	0.398035805359	1
8	3475	0.398045805359	0
8	3483	0.398079805359	1
8	3550	0.406518126144	3
8	3555	0.406600126144	1
8	3563	0.406610126144	0
8	3570	0.406644126144	1
8	3599	0.408579688265	3
8	3605	0.408661688265	1
8	3613	0.408671688265	0
8	3621	0.408705688265	1
8	3646	0.411871688238	3
8	3652	0.411953688238	1
8	3657	0.411963688238	0
8	3665	0.411997688238	1
8	3726	0.4287756881	3
8	3732	0.4288576881	1
8	3741	0.4288676881	0
8	3749	0.4289016881	1
8	3794	0.438904007866	3
8	3800	0.438986007866	1
8	3808	0.438996007866	0
8	3816	0.439030007866	1
8	3827	0.439080673652	3
8	3833	0.439162673652	1
8	3842	0.439172673652	0
8	3850	0.439206673652	1
8	3862	0.439396673651	3
8	3867	0.439478673651	1
8	3871	0.439488673651	0
8	3878	0.439522673651	1
8	3889	0.440033339434	3
8	3895	0.440115339434	1
8	3903	0.440125339434	0
8	3911	0.440159339434	1
8	3928	0.44844299032	3
8	3934	0.44852499032	1
8	3942	0.44853499032	0
8	3950	0.44856899032	1
8	3966	0.448919453801	3
8	3973	0.449001453801	1
8	3982	0.449011453801	0
8	3991	0.449045453801	1
8	4039	0.451328119553	3
8	4045	0.451410119553	1
8	4049	0.451420119553	0
8	4057	0.451454119553	1
8	4080	0.46844299029	3
8	4085	0.46852499029	1
8	4093	0.46853499029	0
8	4100	0.46856899029	1
8	4115	0.46857968778	3
8	4120	0.46866168778	1
8	4128	0.46867168778	0
8	4135	0.46870568778	1
8	4145	0.469138990289	3
8	4151	0.469220990289	1
8	4155	0.469230990289	0
8	4163	0.469264990289	1
8	4174	0.471694990285	3
8	4180	0.471776990285	1
8	4184	0.471786990285	0
8	4192	0.471820990285	1
8	4227	0.484886990265	3
8	4233	0.484968990265	1
8	4237	0.484978990265	0
8	4245	0.485012990265	1
8	4281	0.489302990259	3
8	4287	0.489384990259	1
8	4291	0.489394990259	0
8	4299	0.489428990259	1
8	4327	0.490215105229	3
8	4333	0.490297105229	1
8	4341	0.490307105229	0
8	4349	0.490341105229	1
8	4406	0.499239422962	3
8	4412	0.499321422962	1
8	4420	0.499331422962	0
8	4428	0.499365422962	1
8	4449	0.501695422958	3
8	4455	0.501777422958	1
8	4459	0.501787422958	0
8	4467	0.501821422958	1
8	4486	0.50844299023	3
8	4491	0.50852499023	1
8	4499	0.50853499023	0
8	4506	0.50856899023	1
8	4540	0.509255452763	3
8	4546	0.509337452763	1
8	4555	0.509347452763	0
8	4563	0.509381452763	1
8	4663	0.528579687313	3
8	4669	0.528661687313	1
8	4677	0.528671687313	0
8	4685	0.528705687313	1
8	4715	0.530612352828	3
8	4721	0.530694352828	1
8	4726	0.530704352828	0
8	4734	0.530738352828	1
8	4793	0.536356352819	3
8	4798	0.536438352819	1
8	4806	0.536448352819	0
8	4813	0.536482352819	1
8	4859	0.548579687162	3
8	4865	0.548661687162	1
8	4874	0.548671687162	0
8	4882	0.548705687162	1
8	4893	0.549395687156	3
8	4899	0.549477687156	1
8	4904	0.549487687156	0
8	4912	0.549521687156	1
8	4924	0.551231687142	3
8	4930	0.551313687142	1
8	4934	0.551323687142	0
8	4942	0.551357687142	1
8	4969	0.556644464639	3
8	4974	0.556726464639	1
8	4979	0.556736464639	0
8	4986	0.556770464639	1
8	4998	0.557360464633	3
8	5004	0.557442464633	1
8	5008	0.557452464633	0
8	5016	0.557486464633	1
8	5048	0.568579687013	3
8	5054	0.568661687013	1
8	5063	0.568671687013	0
8	5071	0.568705687013	1
8	5097	0.574132002131	3
8	5102	0.574214002131	1
8	5110	0.574224002131	0
8	5117	0.574258002131	1
8	5147	0.575464667511	3
8	5152	0.575546667511	1
8	5160	0.575556667511	0
8	5167	0.575590667511	1
8	5191	0.588442990111	3
8	5197	0.588524990111	1
8	5205	0.588534990111	0
8	5213	0.588568990111	1
8	5230	0.588659451446	3
8	5236	0.588741451446	1
8	5244	0.588751451446	0
8	5252	0.588785451446	1
8	5278	0.591011765894	3
8	5284	0.591093765894	1
8	5288	0.591103765894	0
8	5296	0.591137765894	1
8	5351	0.606039765872	3
8	5357	0.606121765872	1
8	5361	0.606131765872	0
8	5369	0.606165765872	1
8	5405	0.608579686721	3
8	5410	0.608661686721	1
8	5419	0.608671686721	0
8	5426	0.608705686721	1
8	5439	0.609375686715	3
8	5445	0.609457686715	1
8	5450	0.609467686715	0
8	5458	0.609501686715	1
8	5469	0.610052000467	3
8	5475	0.610134000467	1
8	5484	0.610144000467	0
8	5492	0.610178000467	1
8	5503	0.611248000465	3
8	5509	0.611330000465	1
8	5513	0.611340000465	0
8	5521	0.611374000465	1
8	5587	0.629015098697	3
8	5592	0.629097098697	1
8	5601	0.629107098697	0
8	5608	0.629141098697	1
8	5619	0.629195411794	3
8	5625	0.629277411794	1
8	5633	0.629287411794	0
8	5641	0.629321411794	1
8	5667	0.632547520386	3
8	5672	0.632629520386	1
8	5677	0.632639520386	0
8	5684	0.632673520386	1
8	5697	0.633163520382	3
8	5703	0.633245520382	1
8	5708	0.633255520382	0
8	5716	0.633289520382	1
8	5831	0.651167517873	3
8	5836	0.651249517873	1
8	5845	0.651259517873	0
8	5852	0.651293517873	1
8	5864	0.652964183025	3
8	5870	0.653046183025	1
8	5878	0.653056183025	0
8	5886	0.653090183025	1
8	5969	0.669691408588	2
8	5974	0.669737096838	1
8	6008	0.673127096814	3
8	6013	0.673209096814	1
8	6022	0.673219096814	0
8	6029	0.673253096814	1
8	6065	0.683279761889	3
8	6070	0.683361761889	1
8	6079	0.683371761889	0
8	6086	0.683405761889	1
8	6141	0.689135686159	3
8	6147	0.689217686159	1
8	6155	0.689227686159	0
8	6163	0.689261686159	1
8	6188	0.692727997203	3
8	6194	0.692809997203	1
8	6202	0.692819997203	0
8	6210	0.692853997203	1
8	6293	0.709435686023	3
8	6298	0.709517686023	1
8	6307	0.709527686023	0
8	6314	0.709561686023	1
8	6377	0.725560350983	3
8	6383	0.725642350983	1
8	6392	0.725652350983	0
8	6400	0.725686350983	1
8	6474	0.730091507867	3
8	6479	0.730173507867	1
8	6488	0.730183507867	0
8	6495	0.730217507867	1
8	6543	0.737123403745	3
8	6549	0.737205403745	1
8	6557	0.737215403745	0
8	6565	0.737249403745	1
8	6645	0.750751685753	3
8	6651	0.750833685753	1
8	6660	0.750843685753	0
8	6668	0.750877685753	1
8	6725	0.753740097755	3
8	6731	0.753822097755	1
8	6735	0.753832097755	0
8	6743	0.753866097755	1
8	6837	0.768579685639	3
8	6842	0.768661685639	1
8	6851	0.768671685639	0
8	6858	0.768705685639	1
8	6871	0.769375685634	3
8	6877	0.769457685634	1
8	6882	0.769467685634	0
8	6890	0.769501685634	1
8	6903	0.770411685627	3
8	6909	0.770493685627	1
8	6914	0.770503685627	0
8	6922	0.770537685627	1
8	6968	0.788579685513	3
8	6973	0.788661685513	1
8	6981	0.788671685513	0
8	6988	0.788705685513	1
8	7015	0.789651685507	3
8	7021	0.789733685507	1
8	7026	0.789743685507	0
8	7034	0.789777685507	1
8	7046	0.790907685499	3
8	7052	0.790989685499	1
8	7057	0.790999685499	0
8	7065	0.791033685499	1
8	7076	0.791823685493	3
8	7081	0.791905685493	1
8	7086	0.791915685493	0
8	7093	0.791949685493	1
8	7104	0.796223993052	3
8	7109	0.796305993052	1
8	7118	0.796315993052	0
8	7125	0.796349993052	1
8	7138	0.797020657781	3
8	7144	0.797102657781	1
8	7152	0.797112657781	0
8	7160	0.797146657781	1
8	7171	0.79767665778	3
8	7177	0.79775865778	1
8	7181	0.79776865778	0
8	7189	0.79780265778	1
8	7322	0.809355685385	3
8	7328	0.809437685385	1
8	7337	0.809447685385	0
8	7345	0.809481685385	1
8	7357	0.810591685378	3
8	7363	0.810673685378	1
8	7368	0.810683685378	0
8	7376	0.810717685378	1
8	7408	0.817583685335	3
8	7414	0.817665685335	1
8	7419	0.817675685335	0
8	7427	0.817709685335	1
8	7492	0.829835685261	3
8	7498	0.829917685261	1
8	7507	0.829927685261	0
8	7515	0.829961685261	1
8	7540	0.830911685255	3
8	7546	0.830993685255	1
8	7550	0.831003685255	0
8	7558	0.831037685255	1
8	7568	0.831647991431	3
8	7574	0.831729991431	1
8	7582	0.831739991431	0
8	7590	0.831773991431	1
8	7635	0.834836656055	3
8	7641	0.834918656055	1
8	7650	0.834928656055	0
8	7658	0.834962656055	1
8	7705	0.84857968515	3
8	7711	0.84866168515	1
8	7719	0.84867168515	0
8	7727	0.84870568515	1
8	7738	0.849715990713	3
8	7744	0.849797990713	1
8	7752	0.849807990713	0
8	7760	0.849841990713	1
8	7816	0.869199087721	3
8	7822	0.869281087721	1
8	7830	0.869291087721	0
8	7838	0.869325087721	1
8	7929	0.888579684918	3
8	7935	0.888661684918	1
8	7944	0.888671684918	0
8	7952	0.888705684918	1
8	7964	0.897335989079	3
8	7970	0.897417989079	1
8	7978	0.897427989079	0
8	7986	0.897461989079	1
8	8099	0.909375684801	3
8	8105	0.909457684801	1
8	8114	0.909467684801	0
8	8122	0.909501684801	1
8	8218	0.92961168469	3
8	8223	0.92969368469	1
8	8232	0.92970368469	0
8	8239	0.92973768469	1
8	8314	0.949695684581	3
8	8320	0.949777684581	1
8	8328	0.949787684581	0
8	8336	0.949821684581	1
8	8443	0.972467684461	3
8	8449	0.972549684461	1
8	8458	0.972559684461	0
8	8466	0.972593684461	1
8	8477	0.977483684435	3
8	8483	0.977565684435	1
8	8488	0.977575684435	0
8	8496	0.977609684435	1
8	8525	0.988579684377	3
8	8531	0.988661684377	1
8	8539	0.988671684377	0
8	8547	0.988705684377	1
8	8642	1.009075684273	3
8	8647	1.009157684273	1
8	8656	1.009167684273	0
8	8663	1.009201684273	1
8	8693	1.01987198422	3
8	8699	1.01995398422	1
8	8707	1.01996398422	0
8	8715	1.01999798422	1
8	8741	1.020744648307	3
8	8747	1.020826648307	1
8	8755	1.020836648307	0
8	8763	1.020870648307	1
8	8775	1.023160648303	3
8	8781	1.023242648303	1
8	8785	1.023252648303	0
8	8793	1.023286648303	1
8	8863	1.029695684171	3
8	8869	1.029777684171	1
8	8878	1.029787684171	0
8	8886	1.029821684171	1
8	8910	1.040291983369	3
8	8916	1.040373983369	1
8	8920	1.040383983369	0
8	8928	1.040417983369	1
8	8956	1.044083983364	3
8	8962	1.044165983364	1
8	8970	1.044175983364	0
8	8978	1.044209983364	1
8	9038	1.047108647379	3
8	9044	1.047190647379	1
8	9052	1.047200647379	0
8	9060	1.047234647379	1
8	9071	1.047645311389	3
8	9077	1.047727311389	1
8	9085	1.047737311389	0
8	9093	1.047771311389	1
8	9113	1.048579684079	3
8	9119	1.048661684079	1
8	9127	1.048671684079	0
8	9135	1.048705684079	1
8	9146	1.048975684077	3
8	9152	1.049057684077	1
8	9157	1.049067684077	0
8	9165	1.049101684077	1
8	9178	1.049372348082	3
8	9184	1.049454348082	1
8	9189	1.049464348082	0
8	9197	1.049498348082	1
8	9318	1.06943568398	3
8	9324	1.06951768398	1
8	9332	1.06952768398	0
8	9340	1.06956168398	1
8	9421	1.075556347919	3
8	9427	1.075638347919	1
8	9435	1.075648347919	0
8	9443	1.075682347919	1
8	9504	1.089555683887	3
8	9510	1.089637683887	1
8	9519	1.089647683887	0
8	9527	1.089681683887	1
8	9553	1.092607683873	3
9	0	0	1
9	39	0.008619128986	3
9	50	0.008701128986	1
9	56	0.008711462112	3
9	64	0.008745462112	1
9	74	0.009155600014	3
9	80	0.009237600014	1
9	108	0.010123795371	3
9	115	0.010157795371	1
9	125	0.010307599999	3
9	131	0.010389599999	1
9	159	0.01487960008	3
9	166	0.01496160008	1
9	172	0.014971932889	3
9	180	0.015005932889	1
9	210	0.023067932623	3
9	217	0.023101932623	1
9	286	0.028811795017	3
9	293	0.028845795017	1
9	313	0.048443128088	3
9	319	0.048525128088	1
9	401	0.050947930851	3
9	411	0.051029930851	1
9	417	0.051040261841	3
9	424	0.051074261841	1
9	435	0.051883930867	3
9	442	0.051965930867	1
9	589	0.088443127194	3
9	600	0.088525127194	1
9	606	0.088535322429	3
9	614	0.088569322429	1
9	645	0.089191456279	3
9	653	0.089225456279	1
9	692	0.108535321946	3
9	699	0.108569321946	1
9	746	0.109975126775	3
9	751	0.110057126775	1
9	795	0.121723126982	3
9	802	0.121805126982	1
9	827	0.125879127056	3
9	833	0.125961127056	1
9	895	0.129219126317	3
9	901	0.129301126317	1
9	913	0.130175126334	3
9	924	0.130257126334	1
9	930	0.13026745335	3
9	939	0.13030145335	1
9	983	0.136479782659	3
9	990	0.136513782659	1
9	1034	0.145791782433	3
9	1042	0.145825782433	1
9	1143	0.15366815442	3
9	1149	0.15375015442	1
9	1212	0.16857969504	3
9	1218	0.16866169504	1
9	1230	0.169295695053	3
9	1236	0.169377695053	1
9	1280	0.171048153159	3
9	1290	0.171130153159	1
9	1327	0.171740153143	3
9	1337	0.171822153143	1
9	1343	0.171832348223	3
9	1350	0.171866348223	1
9	1360	0.173536153103	3
9	1366	0.173618153103	1
9	1457	0.188672019501	3
9	1464	0.188706019501	1
9	1494	0.20378868568	3
9	1501	0.20382268568	1
9	1579	0.20875569575	3
9	1589	0.20883769575	1
9	1595	0.208848018856	3
9	1609	0.208882018856	1
9	1627	0.210033157068	3
9	1634	0.210115157068	1
9	1640	0.210125480112	3
9	1649	0.210159480112	1
9	1726	0.2285796961	3
9	1736	0.2286616961	1
9	1759	0.233456489566	3
9	1765	0.233538489566	1
9	1838	0.235596684479	3
9	1846	0.235630684479	1
9	1856	0.236121155909	3
9	1867	0.236203155909	1
9	1907	0.239513155834	3
9	1913	0.239595155834	1
9	2002	0.24867201759	3
9	2010	0.24870601759	1
9	2020	0.251416148258	3
9	2027	0.251498148258	1
9	2166	0.268995696814	3
9	2171	0.269077696814	1
9	2182	0.270611696843	3
9	2193	0.270693696843	1
9	2199	0.270704016892	3
9	2208	0.270738016892	1
9	2282	0.28857969716	3
9	2287	0.28866169716	1
9	2298	0.289715697181	3
9	2303	0.289797697181	1
9	2361	0.299420682269	3
9	2369	0.299454682269	1
9	2429	0.308579697514	3
9	2434	0.308661697514	1
9	2445	0.309315697527	3
9	2456	0.309397697527	1
9	2462	0.309408015674	3
9	2472	0.309442015674	1
9	2514	0.326740338953	3
9	2522	0.326774338953	1
9	2546	0.327980810268	3
9	2557	0.328062810268	1
9	2563	0.328073005044	3
9	2572	0.328107005044	1
9	2606	0.328579697868	3
9	2617	0.328661697868	1
9	2641	0.329055697876	3
9	2647	0.329137697876	1
9	2659	0.32925169788	3
9	2665	0.32933369788	1
9	2742	0.34150048612	3
9	2748	0.34158248612	1
9	2762	0.34377648607	3
9	2769	0.34385848607	1
9	2808	0.34458534687	3
9	2815	0.34461934687	1
9	2867	0.348579698221	3
9	2878	0.348661698221	1
9	2970	0.36496068011	3
9	2978	0.36499468011	1
9	3016	0.368579698575	3
9	3022	0.368661698575	1
9	3050	0.368888335579	3
9	3058	0.368922335579	1
9	3068	0.369072485145	3
9	3078	0.369154485145	1
9	3084	0.369164800369	3
9	3091	0.369198800369	1
9	3102	0.369409271663	3
9	3108	0.369491271663	1
9	3160	0.371473586823	3
9	3166	0.371507586823	1
9	3204	0.37469727177	3
9	3210	0.37477927177	1
9	3234	0.377634057997	3
9	3239	0.377716057997	1
9	3276	0.388579698929	3
9	3282	0.388661698929	1
9	3326	0.390111698956	3
9	3333	0.390193698956	1
9	3398	0.396736678893	3
9	3406	0.396770678893	1
9	3447	0.397097816069	3
9	3453	0.397179816069	1
9	3465	0.397953816101	3
9	3472	0.398035816101	1
9	3478	0.398046129919	3
9	3487	0.398080129919	1
9	3647	0.411871699341	3
9	3654	0.411953699341	1
9	3709	0.428579699636	3
9	3715	0.428661699636	1
9	3727	0.42877569964	3
9	3738	0.42885769964	1
9	3828	0.439080802729	3
9	3839	0.439162802729	1
9	3845	0.439172997281	3
9	3853	0.439206997281	1
9	3874	0.439488997273	3
9	3880	0.439522997273	1
9	3967	0.44891946586	3
9	3979	0.44900146586	1
9	4310	0.489859118341	3
9	4316	0.489941118341	1
9	4423	0.49933174523	3
9	4431	0.49936574523	1
9	4462	0.501787745171	3
9	4470	0.501821745171	1
9	4502	0.50853531229	3
9	4509	0.50856931229	1
9	4541	0.509255466365	3
9	4552	0.509337466365	1
9	4558	0.509347774805	3
9	4567	0.509381774805	1
9	4577	0.50953224597	3
9	4583	0.50961424597	1
9	4680	0.528672008918	3
9	4688	0.528706008918	1
9	4698	0.529956480042	3
9	4704	0.530038480042	1
9	4716	0.530612480027	3
9	4723	0.530694480027	1
9	4729	0.530704674387	3
9	4738	0.530738674387	1
9	4860	0.54857970176	3
9	4871	0.54866170176	1
9	4894	0.549395701774	3
9	4901	0.549477701774	1
9	4970	0.55664447944	3
9	4976	0.55672647944	1
9	4982	0.556736785609	3
9	4989	0.556770785609	1
9	5049	0.568579702114	3
9	5060	0.568661702114	1
9	5066	0.568672007713	3
9	5075	0.568706007713	1
9	5113	0.574224322705	3
9	5120	0.574258322705	1
9	5130	0.574888793805	3
9	5136	0.574970793805	1
9	5208	0.588535310362	3
9	5216	0.588569310362	1
9	5364	0.606132085724	3
9	5372	0.606166085724	1
9	5406	0.608579702822	3
9	5416	0.608661702822	1
9	5440	0.609375702836	3
9	5447	0.609457702836	1
9	5470	0.610052126041	3
9	5481	0.610134126041	1
9	5570	0.628839115303	3
9	5576	0.628921115303	1
9	5588	0.629015115306	3
9	5598	0.629097115306	1
9	5668	0.632547537083	3
9	5674	0.632629537083	1
9	5680	0.632639839639	3
9	5687	0.632673839639	1
9	5698	0.633163537094	3
9	5705	0.633245537094	1
9	5711	0.633255839621	3
9	5720	0.633289839621	1
9	5766	0.648959114872	3
9	5771	0.649041114872	1
9	5782	0.649135114875	3
9	5788	0.649217114875	1
9	5816	0.650767534916	3
9	5821	0.650849534916	1
9	5832	0.65116753503	3
9	5842	0.65124953503	1
9	5963	0.66965511445	3
9	5975	0.66973711445	1
9	5993	0.672091114493	3
9	5998	0.672173114493	1
9	6009	0.673127114512	3
9	6019	0.673209114512	1
9	6066	0.683279885968	3
9	6076	0.683361885968	1
9	6082	0.683372079994	3
9	6089	0.683406079994	1
9	6124	0.688579704239	3
9	6130	0.688661704239	1
9	6158	0.689228004132	3
9	6166	0.689262004132	1
9	6205	0.692820315095	3
9	6213	0.692854315095	1
9	6275	0.708579704594	3
9	6281	0.708661704594	1
9	6294	0.709435704609	3
9	6304	0.709517704609	1
9	6378	0.725560474201	3
9	6389	0.725642474201	1
9	6395	0.725652668132	3
9	6404	0.725686668132	1
9	6441	0.729239113145	3
9	6447	0.729321113145	1
9	6475	0.730091526955	3
9	6485	0.730173526955	1
9	6491	0.730183824913	3
9	6499	0.730217824913	1
9	6508	0.731071526859	3
9	6513	0.731153526859	1
9	6628	0.748875705308	3
9	6634	0.748957705308	1
9	6646	0.750751705341	3
9	6657	0.750833705341	1
9	6738	0.753832414266	3
9	6746	0.753866414266	1
9	6838	0.768579705657	3
9	6848	0.768661705657	1
9	6854	0.768672001815	3
9	6861	0.768706001815	1
9	6872	0.769375705671	3
9	6879	0.769457705671	1
9	6885	0.769468001792	3
9	6893	0.769502001792	1
9	6904	0.77041170569	3
9	6911	0.77049370569	1
9	6984	0.788672001236	3
9	6990	0.788706001236	1
9	7016	0.789651706031	3
9	7023	0.789733706031	1
9	7029	0.789744001206	3
9	7037	0.789778001206	1
9	7047	0.790907706053	3
9	7054	0.790989706053	1
9	7077	0.791823706069	3
9	7083	0.791905706069	1
9	7105	0.796224114833	3
9	7115	0.796306114833	1
9	7121	0.796316308602	3
9	7129	0.796350308602	1
9	7155	0.797112973313	3
9	7162	0.797146973313	1
9	7323	0.80935570638	3
9	7334	0.80943770638	1
9	7340	0.809448000638	3
9	7348	0.809482000638	1
9	7358	0.810591706402	3
9	7365	0.810673706402	1
9	7371	0.810684000603	3
9	7379	0.810718000603	1
9	7390	0.810847706406	3
9	7395	0.810929706406	1
9	7409	0.817583706526	3
9	7416	0.817665706526	1
9	7422	0.817676000402	3
9	7431	0.817710000402	1
9	7475	0.828579706721	3
9	7481	0.828661706721	1
9	7493	0.829835706743	3
9	7504	0.829917706743	1
9	7585	0.83174030618	3
9	7593	0.83177430618	1
9	7636	0.834836777052	3
9	7647	0.834918777052	1
9	7722	0.848671999516	3
9	7730	0.848705999516	1
9	7930	0.888579707785	3
9	7941	0.888661707785	1
9	7947	0.888671998379	3
9	7956	0.888705998379	1
9	7981	0.897428302342	3
9	7988	0.897462302342	1
9	7998	0.897652108804	3
9	8003	0.897734108804	1
9	8050	0.902180108706	3
9	8056	0.902262108706	1
9	8081	0.908579708139	3
9	8088	0.908661708139	1
9	8100	0.909375708153	3
9	8111	0.909457708153	1
9	8135	0.911012107702	3
9	8141	0.911094107702	1
9	8153	0.911448107693	3
9	8159	0.911530107693	1
9	8187	0.928579708494	3
9	8192	0.928661708494	1
9	8203	0.9289357085	3
9	8208	0.9290177085	1
9	8219	0.929611708512	3
9	8229	0.929693708512	1
9	8235	0.929703997223	3
9	8243	0.929737997223	1
9	8297	0.948579708849	3
9	8303	0.948661708849	1
9	8331	0.94978799666	3
9	8339	0.94982199666	1
9	8377	0.968579709204	3
9	8383	0.968661709204	1
9	8411	0.970131709231	3
9	8417	0.970213709231	1
9	8444	0.972467709273	3
9	8455	0.972549709273	1
9	8478	0.977483709362	3
9	8485	0.977565709362	1
9	8574	0.991552102869	3
9	8580	0.991634102869	1
9	8643	1.009075709922	3
9	8653	1.009157709922	1
9	8758	1.020836958779	3
9	8766	1.020870958779	1
9	8864	1.029695710288	3
9	8875	1.029777710288	1
9	8881	1.02978799444	3
9	8890	1.02982199444	1
9	8939	1.043728100142	3
9	8945	1.043810100142	1
9	8973	1.044176293308	3
9	8981	1.044210293308	1
9	9055	1.047200957254	3
9	9062	1.047234957254	1
9	9130	1.048671993921	3
9	9137	1.048705993921	1
9	9147	1.04897571063	3
9	9154	1.04905771063	1
9	9160	1.04906799391	3
9	9169	1.04910199391	1
9	9179	1.049372464747	3
9	9186	1.049454464747	1
9	9192	1.049464657906	3
9	9201	1.049498657906	1
9	9278	1.063796464436	3
9	9283	1.063878464436	1
9	9352	1.070412464168	3
9	9358	1.070494464168	1
9	9386	1.071584464143	3
9	9392	1.071666464143	1
9	9405	1.073740464096	3
9	9410	1.073822464096	1
9	9505	1.089555711351	3
9	9516	1.089637711351	1
9	9554	1.092607711405	3
10	0	0	1
10	13	0.008442657441	0
10	19	0.008524657441	1
10	37	0.008619128488	3
10	42	0.008701128488	1
10	70	0.009155128488	0
10	76	0.009237128488	1
10	88	0.010031128488	0
10	94	0.010113128488	1
10	109	0.010123795584	3
10	117	0.010157795584	1
10	123	0.010307599405	3
10	128	0.010389599405	1
10	141	0.011323599364	3
10	146	0.011405599364	1
10	157	0.014879599222	3
10	162	0.014961599222	1
10	173	0.014971933205	3
10	182	0.015005933205	1
10	229	0.028442657441	0
10	235	0.028524657441	1
10	250	0.028535324481	3
10	258	0.028569324481	1
10	309	0.048442657441	0
10	315	0.048524657441	1
10	332	0.048618657441	0
10	338	0.048700657441	1
10	350	0.049415125247	3
10	355	0.049497125247	1
10	364	0.050151125247	0
10	370	0.050233125247	1
10	385	0.050243792219	3
10	393	0.050277792219	1
10	418	0.051040262917	3
10	426	0.051074262917	1
10	433	0.051883927875	3
10	438	0.051965927875	1
10	449	0.051976262905	3
10	458	0.052010262905	1
10	476	0.068442657441	0
10	482	0.068524657441	1
10	497	0.068535324357	3
10	505	0.068569324357	1
10	516	0.068679459185	3
10	521	0.068761459185	1
10	535	0.068771794693	3
10	542	0.068805794693	1
10	563	0.069847794681	3
10	570	0.069881794681	1
10	585	0.088442657441	0
10	591	0.088524657441	1
10	607	0.088535324295	3
10	616	0.088569324295	1
10	627	0.089099122069	3
10	632	0.089181122069	1
10	646	0.089191458159	3
10	655	0.089225458159	1
10	672	0.108442657441	0
10	678	0.108524657441	1
10	693	0.108535324233	3
10	701	0.108569324233	1
10	712	0.109059120471	3
10	717	0.109141120471	1
10	793	0.121723119965	3
10	798	0.121805119965	1
10	856	0.128442657441	0
10	862	0.128524657441	1
10	877	0.128778657441	0
10	883	0.128860657441	1
10	893	0.129219118868	3
10	898	0.129301118868	1
10	911	0.130175118829	3
10	916	0.130257118829	1
10	944	0.131151118829	0
10	950	0.131233118829	1
10	964	0.136387118829	0
10	970	0.136469118829	1
10	1002	0.142043118829	0
10	1008	0.142125118829	1
10	1018	0.145699118829	0
10	1024	0.145781118829	1
10	1035	0.145791785505	3
10	1044	0.145825785505	1
10	1055	0.148442657441	0
10	1061	0.148524657441	1
10	1076	0.148579686122	3
10	1081	0.148661686122	1
10	1106	0.148815686122	0
10	1112	0.148897686122	1
10	1122	0.150091686122	0
10	1128	0.150173686122	1
10	1139	0.153667686122	0
10	1145	0.153749686122	1
10	1157	0.154283686122	0
10	1163	0.154365686122	1
10	1182	0.167519686122	0
10	1188	0.167601686122	1
10	1210	0.168579685324	3
10	1215	0.168661685324	1
10	1228	0.169295685296	3
10	1233	0.169377685296	1
10	1246	0.170491685248	3
10	1251	0.170573685248	1
10	1276	0.171047685248	0
10	1282	0.171129685248	1
10	1309	0.171403685248	0
10	1315	0.171485685248	1
10	1323	0.171739685248	0
10	1329	0.171821685248	1
10	1356	0.173535685248	0
10	1362	0.173617685248	1
10	1374	0.174831685248	0
10	1380	0.174913685248	1
10	1399	0.184847685248	0
10	1406	0.184929685248	1
10	1458	0.188672023477	3
10	1466	0.188706023477	1
10	1478	0.203696023477	0
10	1484	0.203778023477	1
10	1495	0.203788689975	3
10	1503	0.203822689975	1
10	1507	0.204192689975	0
10	1513	0.204274689975	1
10	1521	0.205228689975	0
10	1527	0.205310689975	1
10	1537	0.207224689975	0
10	1543	0.207306689975	1
10	1599	0.208880689975	0
10	1614	0.208962689975	1
10	1625	0.210033144967	3
10	1630	0.210115144967	1
10	1654	0.213269144967	0
10	1660	0.213351144967	1
10	1682	0.225345144967	0
10	1688	0.225427144967	1
10	1743	0.228672023044	3
10	1751	0.228706023044	1
10	1755	0.233456023044	0
10	1761	0.233538023044	1
10	1773	0.234172023044	0
10	1779	0.234254023044	1
10	1806	0.235248023044	0
10	1812	0.235330023044	1
10	1822	0.235504023044	0
10	1828	0.235586023044	1
10	1839	0.235596689446	3
10	1848	0.235630689446	1
10	1852	0.236120689446	0
10	1858	0.236202689446	1
10	1887	0.237456689446	0
10	1893	0.237538689446	1
10	1903	0.239512689446	0
10	1909	0.239594689446	1
10	1921	0.243008689446	0
10	1927	0.243090689446	1
10	1956	0.247564689446	0
10	1962	0.247646689446	1
10	1984	0.248579682135	3
10	1989	0.248661682135	1
10	2016	0.251415682135	0
10	2022	0.251497682135	1
10	2049	0.255011682135	0
10	2055	0.255093682135	1
10	2065	0.255567682135	0
10	2071	0.255649682135	1
10	2081	0.256923682135	0
10	2087	0.257005682135	1
10	2097	0.257519682135	0
10	2103	0.257601682135	1
10	2118	0.262695682135	0
10	2124	0.262777682135	1
10	2148	0.268579681338	3
10	2153	0.268661681338	1
10	2180	0.270611681258	3
10	2185	0.270693681258	1
10	2213	0.272647681258	0
10	2219	0.272729681258	1
10	2252	0.285683681258	0
10	2258	0.285765681258	1
10	2312	0.292251680396	3
10	2317	0.292333680396	1
10	2331	0.292344022374	3
10	2339	0.292378022374	1
10	2345	0.299328022374	0
10	2351	0.299410022374	1
10	2382	0.305364022374	0
10	2388	0.305446022374	1
10	2443	0.309315679718	3
10	2448	0.309397679718	1
10	2480	0.316031679718	0
10	2486	0.316113679718	1
10	2498	0.326647679718	0
10	2504	0.326729679718	1
10	2515	0.326740345842	3
10	2524	0.326774345842	1
10	2528	0.327304345842	0
10	2534	0.327386345842	1
10	2542	0.327980345842	0
10	2548	0.328062345842	1
10	2578	0.328156345842	0
10	2584	0.328238345842	1
10	2604	0.328579678952	3
10	2609	0.328661678952	1
10	2624	0.328672022	3
10	2632	0.328706022	1
10	2639	0.329055678933	3
10	2644	0.329137678933	1
10	2672	0.329344021994	3
10	2680	0.329378021994	1
10	2684	0.332768021994	0
10	2690	0.332850021994	1
10	2721	0.338924021994	0
10	2727	0.339006021994	1
10	2738	0.341500021994	0
10	2744	0.341582021994	1
10	2758	0.343776021994	0
10	2764	0.343858021994	1
10	2776	0.343868688066	3
10	2784	0.343902688066	1
10	2788	0.344492688066	0
10	2794	0.344574688066	1
10	2821	0.345188688066	0
10	2827	0.345270688066	1
10	2837	0.347904688066	0
10	2843	0.347986688066	1
10	2865	0.348579678157	3
10	2870	0.348661678157	1
10	2885	0.348672021798	3
10	2894	0.348706021798	1
10	2899	0.349936021798	0
10	2905	0.350018021798	1
10	2921	0.356352021798	0
10	2927	0.356434021798	1
10	2954	0.364868021798	0
10	2960	0.364950021798	1
10	2986	0.368204021798	0
10	2992	0.368286021798	1
10	3014	0.368579677362	3
10	3019	0.368661677362	1
10	3030	0.368795677362	0
10	3036	0.368877677362	1
10	3085	0.369164808154	3
10	3093	0.369198808154	1
10	3098	0.369408808154	0
10	3104	0.369490808154	1
10	3118	0.370025250392	3
10	3123	0.370107250392	1
10	3133	0.37011759467	3
10	3140	0.37015159467	1
10	3172	0.37222159467	0
10	3178	0.37230359467	1
10	3186	0.37313759467	0
10	3192	0.37321959467	1
10	3230	0.37763359467	0
10	3236	0.37771559467	1
10	3274	0.388579676568	3
10	3279	0.388661676568	1
10	3292	0.389215676543	3
10	3297	0.389297676543	1
10	3324	0.390111676507	3
10	3329	0.390193676507	1
10	3340	0.390204021384	3
10	3348	0.390238021384	1
10	3355	0.39382767636	3
10	3360	0.39390967636	1
10	3370	0.393920021348	3
10	3377	0.393954021348	1
10	3382	0.396644021348	0
[...]
86	7765	0.849842323001	14
86	8719	1.019998316264	14
86	8984	1.044210315374	14
86	9065	1.047234979384	14
87	118	0.010157795584	14
87	259	0.028569324481	14
87	394	0.050277792219	14
87	506	0.068569324357	14
87	617	0.088569324295	14
87	702	0.108569324233	14
87	1045	0.145825785505	14
87	1504	0.203822689975	14
87	1849	0.235630689446	14
87	2525	0.326774345842	14
87	2785	0.343902688066	14
87	3409	0.39677068726	14
87	3440	0.397027353172	14
87	3821	0.439030340759	14
87	3883	0.439523006543	14
87	3915	0.440159672325	14
87	4061	0.451454452427	14
87	4473	0.501821755757	14
87	5123	0.574258334822	14
87	5172	0.5755910002	14
87	5375	0.606166098516	14
87	5526	0.611374333101	14
87	5645	0.629321744404	14
87	5891	0.6530905156	14
87	6092	0.683406094419	14
87	6407	0.725686683451	14
87	7132	0.796350325417	14
87	7193	0.797802990143	14
87	7596	0.831774323745	14
87	7663	0.834962988364	14
87	7765	0.849842323001	14
87	8719	1.019998316264	14
87	8984	1.044210315374	14
87	9065	1.047234979384	14
88	118	0.010157795584	14
88	259	0.028569324481	14
88	394	0.050277792219	14
88	506	0.068569324357	14
88	617	0.088569324295	14
88	702	0.108569324233	14
88	1045	0.145825785505	14
88	1504	0.203822689975	14
88	1849	0.235630689446	14
88	2525	0.326774345842	14
88	2785	0.343902688066	14
88	3409	0.39677068726	14
88	3440	0.397027353172	14
88	3821	0.439030340759	14
88	3883	0.439523006543	14
88	3915	0.440159672325	14
88	4061	0.451454452427	14
88	4473	0.501821755757	14
88	5123	0.574258334822	14
88	5172	0.5755910002	14
88	5375	0.606166098516	14
88	5526	0.611374333101	14
88	5645	0.629321744404	14
88	5891	0.6530905156	14
88	6092	0.683406094419	14
88	6407	0.725686683451	14
88	7132	0.796350325417	14
88	7193	0.797802990143	14
88	7596	0.831774323745	14
88	7663	0.834962988364	14
88	7765	0.849842323001	14
88	8719	1.019998316264	14
88	8984	1.044210315374	14
88	9065	1.047234979384	14
89	118	0.010157795584	0.001715138143
89	259	0.028569324481	0.00012666704
89	394	0.050277792219	0.001835134778
89	506	0.068569324357	0.000126666916
89	617	0.088569324295	0.000126666854
89	702	0.108569324233	0.000126666792
89	1045	0.145825785505	0.017383128064
89	1306	0.171184685248	0.022742027807
89	1504	0.203822689975	0.032775004727
89	1770	0.233593023044	0.029896999567
89	1849	0.235630689446	0.026749999471
89	2062	0.255148682135	0.020976659091
89	2372	0.299465022374	0.048049340239
89	2525	0.326774345842	0.054126664584
89	2785	0.343902688066	0.038538665692
89	2999	0.368341021798	0.041036675956
89	3409	0.39677068726	0.052277999194
89	3440	0.397027353172	0.02823167581
89	3771	0.437228674973	0.040327987713
89	3821	0.439030340759	0.041932987587
89	3883	0.439523006543	0.00181533157
89	3915	0.440159672325	0.001079331566
89	4061	0.451454452427	0.003011794986
89	4369	0.497448090159	0.029005432718
89	4473	0.501821755757	0.012519098316
89	4741	0.530749020072	0.022306362631
89	5091	0.57069266944	0.040736649368
89	5123	0.574258334822	0.021510314955
89	5172	0.5755910002	0.00145933076
89	5375	0.606166098516	0.017723441075
89	5526	0.611374333101	0.00293167566
89	5645	0.629321744404	0.000879086963
89	5891	0.6530905156	0.004647858159
89	6092	0.683406094419	0.014963436978
89	6355	0.723805018515	0.035362361074
89	6407	0.725686683451	0.008574664936
89	6703	0.753284662263	0.024842004822
89	7132	0.796350325417	0.043202663154
89	7193	0.797802990143	0.022714972113
89	7534	0.83082865916	0.033808333743
89	7596	0.831774323745	0.008194306076
89	7663	0.834962988364	0.003315329247
89	7765	0.849842323001	0.00139966556
89	7991	0.89747265686	0.029029999419
89	8259	0.931920656047	0.034584999187
89	8684	1.014212652176	0.103200996129
89	8719	1.019998316264	0.075318660217
89	8950	1.043864651354	0.023992999178
89	8984	1.044210315374	0.02382199911
89	9065	1.047234979384	0.00315132803
89	9363	1.070549015954	0.02586870058
90	126	0.010389363952	154
90	144	0.011405363952	154
90	160	0.014961363952	154
90	200	0.023057363952	154
90	402	0.051029694086	154
90	436	0.051965694086	154
90	552	0.069837226068	154
90	747	0.110056888968	154
90	763	0.111892888968	154
90	777	0.115688888968	154
90	796	0.121804888968	154
90	828	0.125960888968	154
90	914	0.13025688817	154
90	1231	0.169377456198	154
90	1249	0.170573456198	154
90	1580	0.208837456198	154
90	1628	0.210114917494	154
90	2167	0.269077456198	154
90	2183	0.270693456198	154
90	2299	0.289797456198	154
90	2315	0.292333456198	154
90	2446	0.309397456198	154
90	2642	0.329137456198	154
90	2660	0.329333456198	154
90	3069	0.369154242759	154
90	3121	0.370107029285	154
90	3150	0.371463029285	154
90	3205	0.374779029285	154
90	3295	0.389297456198	154
90	3327	0.390193456198	154
90	3358	0.393909456198	154
90	3466	0.398035573204	154
90	3633	0.410017456198	154
90	3648	0.411953456198	154
90	3728	0.428857456198	154
90	4311	0.489940873818	154
90	4329	0.490296873818	154
90	4543	0.509337221499	154
90	4895	0.549477456198	154
90	4926	0.551313456198	154
90	4971	0.556726233735	154
90	5000	0.557442233735	154
90	5441	0.609457456198	154
90	5589	0.62909686832	154
90	5653	0.629693290034	154
90	5669	0.632629290034	154
90	5699	0.633245290034	154
90	5783	0.649216867532	154
90	5833	0.651249287651	154
90	5971	0.669736866744	154
90	5994	0.672172866744	154
90	6010	0.673208866744	154
90	6143	0.689217456198	154
90	6295	0.709517456198	154
90	6476	0.730173278178	154
90	6629	0.748957456198	154
90	6647	0.750833456198	154
90	6681	0.751049456198	154
90	6727	0.753821868219	154
90	6873	0.769457456198	154
90	6905	0.770493456198	154
90	7001	0.789357456198	154
90	7017	0.789733456198	154
90	7048	0.790989456198	154
90	7078	0.791905456198	154
90	7324	0.809437456198	154
90	7359	0.810673456198	154
90	7391	0.810929456198	154
90	7410	0.817665456198	154
90	7494	0.829917456198	154
90	7542	0.830993456198	154
90	8101	0.909457456198	154
90	8204	0.929017456198	154
90	8220	0.929693456198	154
90	8316	0.949777456198	154
90	8396	0.969697456198	154
90	8412	0.970213456198	154
90	8445	0.972549456198	154
90	8479	0.977565456198	154
90	8644	1.009157456198	154
90	8865	1.029777456198	154
90	9148	1.049057456198	154
90	9320	1.069517456198	154
90	9506	1.089637456198	154
90	9541	1.091173456198	154
90	9555	1.092689456198	154
91	165	0.014961599664	154
91	204	0.023057599581	154
91	441	0.051965929422	154
91	556	0.069837461225	154
91	801	0.121805123613	154
91	832	0.125961123573	154
91	1028	0.145781452167	154
91	1410	0.184930018526	154
91	1488	0.203778356726	154
91	1633	0.210115151301	154
91	1832	0.235586356245	154
91	1930	0.243091022635	154
91	2026	0.251498015312	154
91	2355	0.299410355478	154
91	2508	0.32673001278	154
91	2664	0.329333688936	154
91	2694	0.332850355047	154
91	2768	0.34385835503	154
91	2931	0.356434354815	154
91	2964	0.364950354802	154
91	3126	0.370107261674	154
91	3154	0.371463261662	154
91	3209	0.374779261635	154
91	3332	0.390193688418	154
91	3363	0.393909688387	154
91	3392	0.396726354304	154
91	3471	0.398035805359	154
91	3653	0.411953688238	154
91	3868	0.439478673651	154
91	4046	0.451410119553	154
91	4152	0.469220990289	154
91	4181	0.471776990285	154
91	4234	0.484968990265	154
91	4288	0.489384990259	154
91	4456	0.501777422958	154
91	4722	0.530694352828	154
91	4900	0.549477687156	154
91	4931	0.551313687142	154
91	4975	0.556726464639	154
91	5005	0.557442464633	154
91	5285	0.591093765894	154
91	5358	0.606121765872	154
91	5446	0.609457686715	154
91	5510	0.611330000465	154
91	5673	0.632629520386	154
91	5704	0.633245520382	154
91	6732	0.753822097755	154
91	6878	0.769457685634	154
91	6910	0.770493685627	154
91	7022	0.789733685507	154
91	7053	0.790989685499	154
91	7082	0.791905685493	154
91	7178	0.79775865778	154
91	7364	0.810673685378	154
91	7415	0.817665685335	154
91	7547	0.830993685255	154
91	8484	0.977565684435	154
91	8782	1.023242648303	154
91	8917	1.040373983369	154
91	9153	1.049057684077	154
91	9185	1.049454348082	154
92	165	0.014961599664	154
92	204	0.023057599581	154
92	441	0.051965929422	154
92	556	0.069837461225	154
92	801	0.121805123613	154
92	832	0.125961123573	154
92	1028	0.145781452167	154
92	1410	0.184930018526	154
92	1488	0.203778356726	154
92	1633	0.210115151301	154
92	1832	0.235586356245	154
92	1930	0.243091022635	154
92	2026	0.251498015312	154
92	2355	0.299410355478	154
92	2508	0.32673001278	154
92	2664	0.329333688936	154
92	2694	0.332850355047	154
92	2768	0.34385835503	154
92	2931	0.356434354815	154
92	2964	0.364950354802	154
92	3126	0.370107261674	154
92	3154	0.371463261662	154
92	3209	0.374779261635	154
92	3332	0.390193688418	154
92	3363	0.393909688387	154
92	3392	0.396726354304	154
92	3471	0.398035805359	154
92	3653	0.411953688238	154
92	3868	0.439478673651	154
92	4046	0.451410119553	154
92	4152	0.469220990289	154
92	4181	0.471776990285	154
92	4234	0.484968990265	154
92	4288	0.489384990259	154
92	4456	0.501777422958	154
92	4722	0.530694352828	154
92	4900	0.549477687156	154
92	4931	0.551313687142	154
92	4975	0.556726464639	154
92	5005	0.557442464633	154
92	5285	0.591093765894	154
92	5358	0.606121765872	154
92	5446	0.609457686715	154
92	5510	0.611330000465	154
92	5673	0.632629520386	154
92	5704	0.633245520382	154
92	6732	0.753822097755	154
92	6878	0.769457685634	154
92	6910	0.770493685627	154
92	7022	0.789733685507	154
92	7053	0.790989685499	154
92	7082	0.791905685493	154
92	7178	0.79775865778	154
92	7364	0.810673685378	154
92	7415	0.817665685335	154
92	7547	0.830993685255	154
92	8484	0.977565684435	154
92	8782	1.023242648303	154
92	8917	1.040373983369	154
92	9153	1.049057684077	154
92	9185	1.049454348082	154
93	165	0.014961599664	154
93	204	0.023057599581	154
93	441	0.051965929422	154
93	556	0.069837461225	154
93	801	0.121805123613	154
93	832	0.125961123573	154
93	1028	0.145781452167	154
93	1410	0.184930018526	154
93	1488	0.203778356726	154
93	1633	0.210115151301	154
93	1832	0.235586356245	154
93	1930	0.243091022635	154
93	2026	0.251498015312	154
93	2355	0.299410355478	154
93	2508	0.32673001278	154
93	2664	0.329333688936	154
93	2694	0.332850355047	154
93	2768	0.34385835503	154
93	2931	0.356434354815	154
93	2964	0.364950354802	154
93	3126	0.370107261674	154
93	3154	0.371463261662	154
93	3209	0.374779261635	154
93	3332	0.390193688418	154
93	3363	0.393909688387	154
93	3392	0.396726354304	154
93	3471	0.398035805359	154
93	3653	0.411953688238	154
93	3868	0.439478673651	154
93	4046	0.451410119553	154
93	4152	0.469220990289	154
93	4181	0.471776990285	154
93	4234	0.484968990265	154
93	4288	0.489384990259	154
93	4456	0.501777422958	154
93	4722	0.530694352828	154
93	4900	0.549477687156	154
93	4931	0.551313687142	154
93	4975	0.556726464639	154
93	5005	0.557442464633	154
93	5285	0.591093765894	154
93	5358	0.606121765872	154
93	5446	0.609457686715	154
93	5510	0.611330000465	154
93	5673	0.632629520386	154
93	5704	0.633245520382	154
93	6732	0.753822097755	154
93	6878	0.769457685634	154
93	6910	0.770493685627	154
93	7022	0.789733685507	154
93	7053	0.790989685499	154
93	7082	0.791905685493	154
93	7178	0.79775865778	154
93	7364	0.810673685378	154
93	7415	0.817665685335	154
93	7547	0.830993685255	154
93	8484	0.977565684435	154
93	8782	1.023242648303	154
93	8917	1.040373983369	154
93	9153	1.049057684077	154
93	9185	1.049454348082	154
94	165	0.014961599664	154
94	204	0.023057599581	154
94	441	0.051965929422	154
94	556	0.069837461225	154
94	801	0.121805123613	154
94	832	0.125961123573	154
94	1028	0.145781452167	154
94	1410	0.184930018526	154
94	1488	0.203778356726	154
94	1633	0.210115151301	154
94	1832	0.235586356245	154
94	1930	0.243091022635	154
94	2026	0.251498015312	154
94	2355	0.299410355478	154
94	2508	0.32673001278	154
94	2664	0.329333688936	154
94	2694	0.332850355047	154
94	2768	0.34385835503	154
94	2931	0.356434354815	154
94	2964	0.364950354802	154
94	3126	0.370107261674	154
94	3154	0.371463261662	154
94	3209	0.374779261635	154
94	3332	0.390193688418	154
94	3363	0.393909688387	154
94	3392	0.396726354304	154
94	3471	0.398035805359	154
94	3653	0.411953688238	154
94	3868	0.439478673651	154
94	4046	0.451410119553	154
94	4152	0.469220990289	154
94	4181	0.471776990285	154
94	4234	0.484968990265	154
94	4288	0.489384990259	154
94	4456	0.501777422958	154
94	4722	0.530694352828	154
94	4900	0.549477687156	154
94	4931	0.551313687142	154
94	4975	0.556726464639	154
94	5005	0.557442464633	154
94	5285	0.591093765894	154
94	5358	0.606121765872	154
94	5446	0.609457686715	154
94	5510	0.611330000465	154
94	5673	0.632629520386	154
94	5704	0.633245520382	154
94	6732	0.753822097755	154
94	6878	0.769457685634	154
94	6910	0.770493685627	154
94	7022	0.789733685507	154
94	7053	0.790989685499	154
94	7082	0.791905685493	154
94	7178	0.79775865778	154
94	7364	0.810673685378	154
94	7415	0.817665685335	154
94	7547	0.830993685255	154
94	8484	0.977565684435	154
94	8782	1.023242648303	154
94	8917	1.040373983369	154
94	9153	1.049057684077	154
94	9185	1.049454348082	154
95	216	0.023101835209	14
95	292	0.028845697675	14
95	456	0.052010164757	14
95	568	0.069881696381	14
95	652	0.089225359697	14
95	846	0.126005358177	14
95	938	0.130301357295	14
95	1101	0.148705924969	14
95	1271	0.170617924551	14
95	1463	0.188705924211	14
95	1648	0.210159385107	14
95	1749	0.228705923468	14
95	2009	0.248705923103	14
95	2207	0.270737922705	14
95	2337	0.292377922321	14
95	2471	0.309441922019	14
95	2678	0.329377921673	14
95	2892	0.348705921339	14
95	3223	0.374823493984	14
95	3486	0.398080037513	14
95	3668	0.411997920277	14
95	3752	0.428901920001	14
95	3994	0.449045685539	14
95	4137	0.468705919361	14
95	4351	0.49034133664	14
95	4566	0.509381684026	14
95	4687	0.528705918428	14
95	5018	0.557486695531	14
95	5074	0.568705917827	14
95	5254	0.588785682113	14
95	5461	0.609501917232	14
95	5719	0.633289750729	14
95	5855	0.651293748094	14
95	6032	0.673253326883	14
95	6165	0.68926191612	14
95	6317	0.709561915847	14
95	6498	0.730217737555	14
95	6745	0.75386632729	14
95	6925	0.770537915056	14
95	7096	0.791949914788	14
95	7430	0.817709914472	14
95	7560	0.831037914311	14
95	7729	0.848705914101	14
95	7840	0.869325316552	14
95	7955	0.888705913638	14
95	8125	0.909501913404	14
95	8242	0.929737913181	14
95	8338	0.949821912964	14
95	8499	0.977609912671	14
95	8549	0.988705912556	14
95	8666	1.009201912348	14
95	8889	1.029821912143	14
95	9168	1.049101911956	14
95	9342	1.069561911762	14
96	216	0.023101835209	14
96	292	0.028845697675	14
96	456	0.052010164757	14
96	568	0.069881696381	14
96	652	0.089225359697	14
96	846	0.126005358177	14
96	938	0.130301357295	14
96	1101	0.148705924969	14
96	1271	0.170617924551	14
96	1463	0.188705924211	14
96	1648	0.210159385107	14
96	1749	0.228705923468	14
96	2009	0.248705923103	14
96	2207	0.270737922705	14
96	2337	0.292377922321	14
96	2471	0.309441922019	14
96	2678	0.329377921673	14
96	2892	0.348705921339	14
96	3223	0.374823493984	14
96	3486	0.398080037513	14
96	3668	0.411997920277	14
96	3752	0.428901920001	14
96	3994	0.449045685539	14
96	4137	0.468705919361	14
96	4351	0.49034133664	14
96	4566	0.509381684026	14
96	4687	0.528705918428	14
96	5018	0.557486695531	14
96	5074	0.568705917827	14
96	5254	0.588785682113	14
96	5461	0.609501917232	14
96	5719	0.633289750729	14
96	5855	0.651293748094	14
96	6032	0.673253326883	14
96	6165	0.68926191612	14
96	6317	0.709561915847	14
96	6498	0.730217737555	14
96	6745	0.75386632729	14
96	6925	0.770537915056	14
96	7096	0.791949914788	14
96	7430	0.817709914472	14
96	7560	0.831037914311	14
96	7729	0.848705914101	14
96	7840	0.869325316552	14
96	7955	0.888705913638	14
96	8125	0.909501913404	14
96	8242	0.929737913181	14
96	8338	0.949821912964	14
96	8499	0.977609912671	14
96	8549	0.988705912556	14
96	8666	1.009201912348	14
96	8889	1.029821912143	14
96	9168	1.049101911956	14
96	9342	1.069561911762	14
97	216	0.023101835209	14
97	292	0.028845697675	14
97	456	0.052010164757	14
97	568	0.069881696381	14
97	652	0.089225359697	14
97	846	0.126005358177	14
97	938	0.130301357295	14
97	1101	0.148705924969	14
97	1271	0.170617924551	14
97	1463	0.188705924211	14
97	1648	0.210159385107	14
97	1749	0.228705923468	14
97	2009	0.248705923103	14
97	2207	0.270737922705	14
97	2337	0.292377922321	14
97	2471	0.309441922019	14
97	2678	0.329377921673	14
97	2892	0.348705921339	14
97	3223	0.374823493984	14
97	3486	0.398080037513	14
97	3668	0.411997920277	14
97	3752	0.428901920001	14
97	3994	0.449045685539	14
97	4137	0.468705919361	14
97	4351	0.49034133664	14
97	4566	0.509381684026	14
97	4687	0.528705918428	14
97	5018	0.557486695531	14
97	5074	0.568705917827	14
97	5254	0.588785682113	14
97	5461	0.609501917232	14
97	5719	0.633289750729	14
97	5855	0.651293748094	14
97	6032	0.673253326883	14
97	6165	0.68926191612	14
97	6317	0.709561915847	14
97	6498	0.730217737555	14
97	6745	0.75386632729	14
97	6925	0.770537915056	14
97	7096	0.791949914788	14
97	7430	0.817709914472	14
97	7560	0.831037914311	14
97	7729	0.848705914101	14
97	7840	0.869325316552	14
97	7955	0.888705913638	14
97	8125	0.909501913404	14
97	8242	0.929737913181	14
97	8338	0.949821912964	14
97	8499	0.977609912671	14
97	8549	0.988705912556	14
97	8666	1.009201912348	14
97	8889	1.029821912143	14
97	9168	1.049101911956	14
97	9342	1.069561911762	14
98	216	0.023101835209	0.014482942241
98	292	0.028845697675	0.000126471141
98	456	0.052010164757	0.002595273397
98	568	0.069881696381	0.001202470313
98	652	0.089225359697	0.000126469929
98	846	0.126005358177	0.016946469209
98	938	0.130301357295	0.001082469125
98	1101	0.148705924969	0.000126468771
98	1271	0.170617924551	0.002038468353
98	1463	0.188705924211	0.000126468013
98	1648	0.210159385107	0.001579928909
98	1749	0.228705923468	0.00012646727
98	2009	0.248705923103	0.000126466905
98	2207	0.270737922705	0.002158466507
98	2337	0.292377922321	0.003798466123
98	2471	0.309441922019	0.000862465821
98	2678	0.329377921673	0.000798465475
98	2892	0.348705921339	0.000126465141
98	3223	0.374823493984	0.006244037786
98	3486	0.398080037513	0.009500581315
98	3668	0.411997920277	0.003418464079
98	3752	0.428901920001	0.000322463803
98	3994	0.449045685539	0.000126463477
98	4137	0.468705919361	0.000126463163
98	4351	0.49034133664	0.001761880442
98	4566	0.509381684026	0.000562462527
98	4687	0.528705918428	0.00012646223
98	5018	0.557486695531	0.008907239333
98	5074	0.568705917827	0.000126461629
98	5254	0.588785682113	0.000126461334
98	5461	0.609501917232	0.000922461034
98	5719	0.633289750729	0.004450882409
98	5855	0.651293748094	0.002334880562
98	6032	0.673253326883	0.004594460139
98	6165	0.68926191612	0.000682459922
98	6317	0.709561915847	0.000982459649
98	6498	0.730217737555	0.000978873172
98	6745	0.75386632729	0.005286871092
98	6925	0.770537915056	0.001958458858
98	7096	0.791949914788	0.00337045859
98	7430	0.817709914472	0.009130458274
98	7560	0.831037914311	0.002458458113
98	7729	0.848705914101	0.000126457903
98	7840	0.869325316552	0.000126457662
98	7955	0.888705913638	0.00012645744
98	8125	0.909501913404	0.000922457206
98	8242	0.929737913181	0.001158456983
98	8338	0.949821912964	0.001242456766
98	8499	0.977609912671	0.009030456473
98	8549	0.988705912556	0.000126456358
98	8666	1.009201912348	0.00062245615
98	8889	1.029821912143	0.001242455945
98	9168	1.049101911956	0.000522455758
98	9342	1.069561911762	0.000982455564
99	686	0.1	80000
99	1588	0.2	72000
99	2396	0.3	72000
99	3560	0.4	80000
99	4496	0.5	96000
99	5415	0.6	80000
99	6303	0.7	80000
99	7333	0.8	72000
99	8110	0.9	72000
99	8652	1	40000
100	1306	0.171184685248	154
100	1770	0.233593023044	154
100	2062	0.255148682135	154
100	2372	0.299465022374	154
100	2999	0.368341021798	154
100	3771	0.437228674973	154
100	4369	0.497448090159	154
100	4741	0.530749020072	154
100	5091	0.57069266944	154
100	6355	0.723805018515	154
100	6703	0.753284662263	154
100	7534	0.83082865916	154
100	7991	0.89747265686	154
100	8259	0.931920656047	154
100	8684	1.014212652176	154
100	8950	1.043864651354	154
100	9363	1.070549015954	154
101	1306	0.171184685248	154
101	1770	0.233593023044	154
101	2062	0.255148682135	154
101	2372	0.299465022374	154
101	2999	0.368341021798	154
101	3771	0.437228674973	154
101	4369	0.497448090159	154
101	4741	0.530749020072	154
101	5091	0.57069266944	154
101	6355	0.723805018515	154
101	6703	0.753284662263	154
101	7534	0.83082865916	154
101	7991	0.89747265686	154
101	8259	0.931920656047	154
101	8684	1.014212652176	154
101	8950	1.043864651354	154
101	9363	1.070549015954	154
102	1616	0.208962917494	154

