version 2
run Static-0-20200521-13:32:22-5380
attr configname Static
attr datetime 20200521-13:32:22
attr experiment Static
attr inifile omnetpp.ini
attr iterationvars ""
attr iterationvarsf ""
attr measurement ""
attr network Network
attr processid 5380
attr repetition 0
attr replication #0
attr resultdir results
attr runnumber 0
attr seedset 0
param **.host[*].mobility.typename "\"StationaryMobility\""
param **.host[*].mobility.initFromDisplayString false
param **.networkConfigurator.typename "\"NextHopNetworkConfigurator\""
param *.host[*].wlan[2].radio.displayCommunicationRange true
param *.visualizer.sceneVisualizer.descriptionFigure "\"title\""
param *.visualizer.mediumVisualizer.displaySignals true
param *.visualizer.physicalLinkVisualizer.displayLinks true
param *.host[*].wlan[0].radio.transmitter.communicationRange 500m
param *.host[*].wlan[0].radio.displayCommunicationRange true
param **.host[*].mobility.initialZ 0m
param **.host[0].mobility.initialX 100m
param **.host[0].mobility.initialY 100m
param **.host[1].mobility.initialX 200m
param **.host[1].mobility.initialY 100m
param **.host[2].mobility.initialX 100m
param **.host[2].mobility.initialY 200m
param **.host[3].mobility.initialX 150m
param **.host[3].mobility.initialY 150m
param **.constraintAreaMaxX 500m
param **.constraintAreaMaxY 500m
param **.constraintAreaMaxZ 0m
param **.constraintAreaMinX 0m
param **.constraintAreaMinY 0m
param **.constraintAreaMinZ 0m
param **.counter 4
param **.networkConfiguratorModule "\"networkConfigurator\""
param **.networkConfigurator.config "xmldoc(\"scenario.xml\")"
param **.host[*].hasIpv4 false
param **.host[*].hasIpv6 false
param **.host[*].hasGn true
param **.host[*].generic.typename "\"NextHopNetworkLayer\""
param **.host[*].generic.nextHop.hopLimit 4
param **.numApps 1
param **.radioMedium.pathLoss.typename "\"LogNormalShadowing\""
param **.radioMedium.pathLoss.alpha 3
param **.radioMedium.pathLoss.sigma 7
param **.host[0].app[0].typename "\"UdpSink\""
param **.host[0].app[0].localPort 7654
param **.host[1].app[0].typename "\"UdpSink\""
param **.host[1].app[0].localPort 7654
param **.host[2..3].app[0].typename "\"UdpBasicApp\""
param **.host[2..3].app[0].destPort 7654
param **.host[2..3].app[0].destAddresses "\"host[0]\""
param **.host[2..3].app[0].messageLength 100B
param **.host[2..3].app[0].startTime "uniform(0s, 10ms)"
param **.host[2..3].app[0].sendInterval 20ms
param **.host[2..3].app[0].packetName "\"CustomData\""

vector 0 Network.host[0].wlan[0].radio radioMode:vector ETV
attr interpolationmode sample-hold
attr source radioModeChanged
attr title "Radio mode, vector"
vector 1 Network.host[0].wlan[0].radio radioChannel:vector ETV
attr interpolationmode sample-hold
attr source radioChannelChanged
attr title "Radio channel, vector"
vector 2 Network.host[1].wlan[0].radio radioMode:vector ETV
attr interpolationmode sample-hold
attr source radioModeChanged
attr title "Radio mode, vector"
vector 3 Network.host[1].wlan[0].radio radioChannel:vector ETV
attr interpolationmode sample-hold
attr source radioChannelChanged
attr title "Radio channel, vector"
vector 4 Network.host[2].wlan[0].radio radioMode:vector ETV
attr interpolationmode sample-hold
attr source radioModeChanged
attr title "Radio mode, vector"
vector 5 Network.host[2].wlan[0].radio radioChannel:vector ETV
attr interpolationmode sample-hold
attr source radioChannelChanged
attr title "Radio channel, vector"
vector 6 Network.host[3].wlan[0].radio radioMode:vector ETV
attr interpolationmode sample-hold
attr source radioModeChanged
attr title "Radio mode, vector"
vector 7 Network.host[3].wlan[0].radio radioChannel:vector ETV
attr interpolationmode sample-hold
attr source radioChannelChanged
attr title "Radio channel, vector"
vector 8 Network.host[0].wlan[0].radio receptionState:vector ETV
attr interpolationmode sample-hold
attr source receptionStateChanged
attr title "Radio reception state, vector"
vector 9 Network.host[1].wlan[0].radio receptionState:vector ETV
attr interpolationmode sample-hold
attr source receptionStateChanged
attr title "Radio reception state, vector"
vector 10 Network.host[2].wlan[0].radio receptionState:vector ETV
attr interpolationmode sample-hold
attr source receptionStateChanged
attr title "Radio reception state, vector"
vector 11 Network.host[3].wlan[0].radio receptionState:vector ETV
attr interpolationmode sample-hold
attr source receptionStateChanged
attr title "Radio reception state, vector"
vector 12 Network.host[0].wlan[0].mac.dcf.recoveryProcedure contentionWindowChanged:vector ETV
attr interpolationmode sample-hold
attr title "contention window, vector"
vector 13 Network.host[1].wlan[0].mac.dcf.recoveryProcedure contentionWindowChanged:vector ETV
attr interpolationmode sample-hold
attr title "contention window, vector"
vector 14 Network.host[2].wlan[0].mac.dcf.recoveryProcedure contentionWindowChanged:vector ETV
attr interpolationmode sample-hold
attr title "contention window, vector"
vector 15 Network.host[3].wlan[0].mac.dcf.recoveryProcedure contentionWindowChanged:vector ETV
attr interpolationmode sample-hold
attr title "contention window, vector"
vector 16 Network.host[2].app[0] packetSent:vector(packetBytes) ETV
attr interpolationmode none
attr source packetSent
attr title "packets sent, vector(packetBytes)"
vector 17 Network.host[2].udp packetSent:vector(packetBytes) ETV
attr interpolationmode none
attr source packetSent
attr title "packets sent, vector(packetBytes)"
vector 18 Network.host[2].wlan[0].mac packetReceivedFromUpper:vector(packetBytes) ETV
attr interpolationmode none
attr title "packets received from upper layer, vector(packetBytes)"
vector 19 Network.host[2].wlan[0].mac.dcf.channelAccess.pendingQueue packetPushed:vector(packetBytes) ETV
attr interpolationmode none
attr title "packet pushed, vector(packetBytes)"
vector 20 Network.host[2].wlan[0].mac.dcf.channelAccess.pendingQueue queueLength:vector ETV
attr interpolationmode sample-hold
attr source "count(packetPushed) - count(packetPopped) - count(packetRemoved) - count(packetDropped)"
attr title "queue length, vector"
vector 21 Network.host[2].wlan[0].mac.dcf.channelAccess.contention backoffPeriodGenerated:vector ETV
attr interpolationmode none
attr title "backoff periods, vector"
vector 22 Network.host[2].wlan[0].mac.dcf.channelAccess.contention backoffActive:vector ETV
attr interpolationmode sample-hold
attr source count(backoffStarted)-count(backoffStopped)
attr title "backoff active, vector"
vector 23 Network.host[2].wlan[0].mac.dcf.channelAccess.pendingQueue packetPopped:vector(packetBytes) ETV
attr interpolationmode none
attr title "packet popped, vector(packetBytes)"
vector 24 Network.host[2].wlan[0].mac.dcf.channelAccess.pendingQueue queueingTime:vector ETV
attr interpolationmode none
attr source queueingTime(packetPopped)
attr title "queueing times, vector"
attr unit s
vector 25 Network.host[2].wlan[0].mac.dcf.channelAccess.inProgressFrames queueLength:vector ETV
attr interpolationmode sample-hold
attr source "count(packetEnqueued) - count(packetDequeued)"
attr title "queue length, vector"
vector 26 Network.host[2].wlan[0].mac.dcf datarateSelected:vector ETV
attr interpolationmode none
attr title "datarates selected, vector"
vector 27 Network.host[2].wlan[0].mac packetSentToLower:vector(packetBytes) ETV
attr interpolationmode none
attr title "packets sent to lower layer, vector(packetBytes)"
vector 28 Network.host[2].wlan[0].mac.dcf frameSequenceActive:vector ETV
attr interpolationmode sample-hold
attr source count(frameSequenceStarted)-count(frameSequenceFinished)
attr title "frame sequence active, vector"
vector 29 Network.host[2].wlan[0].radio transmissionState:vector ETV
attr interpolationmode sample-hold
attr source transmissionStateChanged
attr title "Radio transmission state, vector"
vector 30 Network.host[2].wlan[0].mac.dcf packetSentToPeer:vector(packetBytes) ETV
attr interpolationmode none
attr title "packets sent, vector(packetBytes)"
vector 31 Network.host[2].wlan[0].mac.dcf packetSentToPeerUnicast:vector(packetBytes) ETV
attr interpolationmode none
attr source ieee80211Unicast(packetSentToPeer)
attr title "packets sent: unicast, vector(packetBytes)"
vector 32 Network.host[2].wlan[0].mac.dcf packetSentToPeerWithoutRetry:vector(packetBytes) ETV
attr interpolationmode none
attr source ieee80211NotRetry(packetSentToPeer)
attr title "packets sent: without retry, vector(packetBytes)"
vector 33 Network.host[2].wlan[0].mac.rx nav:vector ETV
attr interpolationmode linear
attr source navChanged
attr title "network allocation vector, vector"
vector 34 Network.host[3].app[0] packetSent:vector(packetBytes) ETV
attr interpolationmode none
attr source packetSent
attr title "packets sent, vector(packetBytes)"
vector 35 Network.host[3].udp packetSent:vector(packetBytes) ETV
attr interpolationmode none
attr source packetSent
attr title "packets sent, vector(packetBytes)"
vector 36 Network.host[3].wlan[0].mac packetReceivedFromUpper:vector(packetBytes) ETV
attr interpolationmode none
attr title "packets received from upper layer, vector(packetBytes)"
vector 37 Network.host[3].wlan[0].mac.dcf.channelAccess.pendingQueue packetPushed:vector(packetBytes) ETV
attr interpolationmode none
attr title "packet pushed, vector(packetBytes)"
vector 38 Network.host[3].wlan[0].mac.dcf.channelAccess.pendingQueue queueLength:vector ETV
attr interpolationmode sample-hold
attr source "count(packetPushed) - count(packetPopped) - count(packetRemoved) - count(packetDropped)"
attr title "queue length, vector"
vector 39 Network.host[3].wlan[0].mac.dcf.channelAccess.contention backoffPeriodGenerated:vector ETV
attr interpolationmode none
attr title "backoff periods, vector"
vector 40 Network.host[3].wlan[0].mac.dcf.channelAccess.contention backoffActive:vector ETV
attr interpolationmode sample-hold
attr source count(backoffStarted)-count(backoffStopped)
attr title "backoff active, vector"
vector 41 Network.host[3].wlan[0].mac.dcf.channelAccess.pendingQueue packetPopped:vector(packetBytes) ETV
attr interpolationmode none
attr title "packet popped, vector(packetBytes)"
vector 42 Network.host[3].wlan[0].mac.dcf.channelAccess.pendingQueue queueingTime:vector ETV
attr interpolationmode none
attr source queueingTime(packetPopped)
attr title "queueing times, vector"
attr unit s
vector 43 Network.host[3].wlan[0].mac.dcf.channelAccess.inProgressFrames queueLength:vector ETV
attr interpolationmode sample-hold
attr source "count(packetEnqueued) - count(packetDequeued)"
attr title "queue length, vector"
vector 44 Network.host[3].wlan[0].mac.dcf datarateSelected:vector ETV
attr interpolationmode none
attr title "datarates selected, vector"
vector 45 Network.host[3].wlan[0].mac packetSentToLower:vector(packetBytes) ETV
attr interpolationmode none
attr title "packets sent to lower layer, vector(packetBytes)"
vector 46 Network.host[3].wlan[0].mac.dcf frameSequenceActive:vector ETV
attr interpolationmode sample-hold
attr source count(frameSequenceStarted)-count(frameSequenceFinished)
attr title "frame sequence active, vector"
vector 47 Network.host[3].wlan[0].radio transmissionState:vector ETV
attr interpolationmode sample-hold
attr source transmissionStateChanged
attr title "Radio transmission state, vector"
vector 48 Network.host[3].wlan[0].mac.dcf packetSentToPeer:vector(packetBytes) ETV
attr interpolationmode none
attr title "packets sent, vector(packetBytes)"
vector 49 Network.host[3].wlan[0].mac.dcf packetSentToPeerUnicast:vector(packetBytes) ETV
attr interpolationmode none
attr source ieee80211Unicast(packetSentToPeer)
attr title "packets sent: unicast, vector(packetBytes)"
vector 50 Network.host[3].wlan[0].mac.dcf packetSentToPeerWithoutRetry:vector(packetBytes) ETV
attr interpolationmode none
attr source ieee80211NotRetry(packetSentToPeer)
attr title "packets sent: without retry, vector(packetBytes)"
vector 51 Network.host[3].wlan[0].mac.rx nav:vector ETV
attr interpolationmode linear
attr source navChanged
attr title "network allocation vector, vector"
vector 52 Network.host[1].wlan[0].mac packetReceivedFromLower:vector(packetBytes) ETV
attr interpolationmode none
attr title "packets received from lower layer, vector(packetBytes)"
vector 53 Network.host[1].wlan[0].mac.rx nav:vector ETV
attr interpolationmode linear
attr source navChanged
attr title "network allocation vector, vector"
vector 54 Network.host[1].wlan[0].mac.dcf packetDrop:vector(packetBytes) ETV
attr interpolationmode none
attr source packetDropped
attr title "packet drops, vector(packetBytes)"
vector 55 Network.host[1].wlan[0].mac.dcf packetDropNotAddressedToUs:vector(packetBytes) ETV
attr interpolationmode none
attr source packetDropReasonIsNotAddressedToUs(packetDropped)
attr title "packet drops: not addressed to us, vector(packetBytes)"
vector 56 Network.host[1].wlan[0].mac packetDrop:vector(packetBytes) ETV
attr interpolationmode none
attr source packetDropped
attr title "packet drops, vector(packetBytes)"
vector 57 Network.host[1].wlan[0].mac packetDropNotAddressedToUs:vector(packetBytes) ETV
attr interpolationmode none
attr source packetDropReasonIsNotAddressedToUs(packetDropped)
attr title "packet drops: not addressed to us, vector(packetBytes)"
vector 58 Network.host[2].wlan[0].mac packetReceivedFromLower:vector(packetBytes) ETV
attr interpolationmode none
attr title "packets received from lower layer, vector(packetBytes)"
vector 59 Network.host[2].wlan[0].mac.dcf packetDrop:vector(packetBytes) ETV
attr interpolationmode none
attr source packetDropped
attr title "packet drops, vector(packetBytes)"
vector 60 Network.host[2].wlan[0].mac.dcf packetDropNotAddressedToUs:vector(packetBytes) ETV
attr interpolationmode none
attr source packetDropReasonIsNotAddressedToUs(packetDropped)
attr title "packet drops: not addressed to us, vector(packetBytes)"
vector 61 Network.host[2].wlan[0].mac packetDrop:vector(packetBytes) ETV
attr interpolationmode none
attr source packetDropped
attr title "packet drops, vector(packetBytes)"
vector 62 Network.host[2].wlan[0].mac packetDropNotAddressedToUs:vector(packetBytes) ETV
attr interpolationmode none
attr source packetDropReasonIsNotAddressedToUs(packetDropped)
attr title "packet drops: not addressed to us, vector(packetBytes)"
vector 63 Network.host[3].wlan[0].mac.dcf packetSentToPeerWithRetry:vector(packetBytes) ETV
attr interpolationmode none
attr source ieee80211Retry(packetSentToPeer)
attr title "packets sent: with retry, vector(packetBytes)"
vector 64 Network.host[2].wlan[0].mac.dcf packetSentToPeerWithRetry:vector(packetBytes) ETV
attr interpolationmode none
attr source ieee80211Retry(packetSentToPeer)
attr title "packets sent: with retry, vector(packetBytes)"
vector 65 Network.host[3].wlan[0].mac packetReceivedFromLower:vector(packetBytes) ETV
attr interpolationmode none
attr title "packets received from lower layer, vector(packetBytes)"
vector 66 Network.host[3].wlan[0].mac.dcf packetDrop:vector(packetBytes) ETV
attr interpolationmode none
attr source packetDropped
attr title "packet drops, vector(packetBytes)"
vector 67 Network.host[3].wlan[0].mac.dcf packetDropNotAddressedToUs:vector(packetBytes) ETV
attr interpolationmode none
attr source packetDropReasonIsNotAddressedToUs(packetDropped)
attr title "packet drops: not addressed to us, vector(packetBytes)"
vector 68 Network.host[3].wlan[0].mac packetDrop:vector(packetBytes) ETV
attr interpolationmode none
attr source packetDropped
attr title "packet drops, vector(packetBytes)"
vector 69 Network.host[3].wlan[0].mac packetDropNotAddressedToUs:vector(packetBytes) ETV
attr interpolationmode none
attr source packetDropReasonIsNotAddressedToUs(packetDropped)
attr title "packet drops: not addressed to us, vector(packetBytes)"
vector 70 Network.host[0].wlan[0].mac packetReceivedFromLower:vector(packetBytes) ETV
attr interpolationmode none
attr title "packets received from lower layer, vector(packetBytes)"
vector 71 Network.host[0].wlan[0].mac.dcf packetReceivedFromPeer:vector(packetBytes) ETV
attr interpolationmode none
attr title "packets received, vector(packetBytes)"
vector 72 Network.host[0].wlan[0].mac.dcf packetReceivedFromPeerUnicast:vector(packetBytes) ETV
attr interpolationmode none
attr source ieee80211Unicast(packetReceivedFromPeer)
attr title "packets received: unicast, vector(packetBytes)"
vector 73 Network.host[0].wlan[0].mac.dcf packetReceivedFromPeerWithRetry:vector(packetBytes) ETV
attr interpolationmode none
attr source ieee80211Retry(packetReceivedFromPeer)
attr title "packets received: with retry, vector(packetBytes)"
vector 74 Network.host[0].wlan[0].mac.dcf datarateSelected:vector ETV
attr interpolationmode none
attr title "datarates selected, vector"
vector 75 Network.host[0].wlan[0].mac packetSentToUpper:vector(packetBytes) ETV
attr interpolationmode none
attr title "packets sent to upper layer, vector(packetBytes)"
vector 76 Network.host[0].udp packetReceived:vector(packetBytes) ETV
attr interpolationmode none
attr source packetReceived
attr title "packets received, vector(packetBytes)"
vector 77 Network.host[0].udp passedUpPk:vector(count) ETV
attr interpolationmode none
attr source packetSentToUpper
attr title "packets passed up, vector(count)"
vector 78 Network.host[0].app[0] packetReceived:vector(packetBytes) ETV
attr interpolationmode none
attr source packetReceived
attr title "packets received, vector(packetBytes)"
vector 79 Network.host[0].app[0] endToEndDelay:vector ETV
attr interpolationmode none
attr source dataAge(packetReceived)
attr title "end-to-end delay, vector"
attr unit s
vector 80 Network.host[0].app[0] rcvdPkSeqNo:vector ETV
attr interpolationmode none
attr source appPkSeqNo(packetReceived)
attr title "received packet sequence number, vector"
vector 81 Network.host[0].wlan[0].mac packetSentToLower:vector(packetBytes) ETV
attr interpolationmode none
attr title "packets sent to lower layer, vector(packetBytes)"
vector 82 Network.host[0].wlan[0].radio transmissionState:vector ETV
attr interpolationmode sample-hold
attr source transmissionStateChanged
attr title "Radio transmission state, vector"
vector 83 Network.host[0].wlan[0].mac.dcf packetSentToPeer:vector(packetBytes) ETV
attr interpolationmode none
attr title "packets sent, vector(packetBytes)"
vector 84 Network.host[0].wlan[0].mac.dcf packetSentToPeerUnicast:vector(packetBytes) ETV
attr interpolationmode none
attr source ieee80211Unicast(packetSentToPeer)
attr title "packets sent: unicast, vector(packetBytes)"
vector 85 Network.host[0].wlan[0].mac.dcf packetSentToPeerWithoutRetry:vector(packetBytes) ETV
attr interpolationmode none
attr source ieee80211NotRetry(packetSentToPeer)
attr title "packets sent: without retry, vector(packetBytes)"
vector 86 Network.host[3].wlan[0].mac.dcf packetReceivedFromPeer:vector(packetBytes) ETV
attr interpolationmode none
attr title "packets received, vector(packetBytes)"
vector 87 Network.host[3].wlan[0].mac.dcf packetReceivedFromPeerUnicast:vector(packetBytes) ETV
attr interpolationmode none
attr source ieee80211Unicast(packetReceivedFromPeer)
attr title "packets received: unicast, vector(packetBytes)"
vector 88 Network.host[3].wlan[0].mac.dcf packetReceivedFromPeerWithoutRetry:vector(packetBytes) ETV
attr interpolationmode none
attr source ieee80211NotRetry(packetReceivedFromPeer)
attr title "packets received: without retry, vector(packetBytes)"
vector 89 Network.host[3].wlan[0].mac.dcf.channelAccess.inProgressFrames queueingTime:vector ETV
attr interpolationmode none
attr source queueingTime(packetDequeued)
attr title "queueing times, vector"
vector 90 Network.host[0].wlan[0].mac.dcf.recipientMacDataService packetDropDuplicateDetected:vector(packetBytes) ETV
attr interpolationmode none
attr source packetDropReasonIsDuplicateDetected(packetDropped)
attr title "packet drops: duplicate detected, vector(packetBytes)"
vector 91 Network.host[0].wlan[0].mac.dcf packetDrop:vector(packetBytes) ETV
attr interpolationmode none
attr source packetDropped
attr title "packet drops, vector(packetBytes)"
vector 92 Network.host[0].wlan[0].mac packetDrop:vector(packetBytes) ETV
attr interpolationmode none
attr source packetDropped
attr title "packet drops, vector(packetBytes)"
vector 93 Network.host[0].wlan[0].mac packetDropDuplicateDetected:vector(packetBytes) ETV
attr interpolationmode none
attr source packetDropReasonIsDuplicateDetected(packetDropped)
attr title "packet drops: duplicate detected, vector(packetBytes)"
vector 94 Network.host[2].wlan[0].mac.dcf.channelAccess.inProgressFrames queueingTime:vector ETV
attr interpolationmode none
attr source queueingTime(packetDequeued)
attr title "queueing times, vector"
vector 95 Network.host[2].wlan[0].mac.dcf packetDropRetryLimitReached:vector(packetBytes) ETV
attr interpolationmode none
attr source packetDropReasonIsRetryLimitReached(packetDropped)
attr title "packet drops: retry limit reached, vector(packetBytes)"
vector 96 Network.host[2].wlan[0].mac packetDropRetryLimitReached:vector(packetBytes) ETV
attr interpolationmode none
attr source packetDropReasonIsRetryLimitReached(packetDropped)
attr title "packet drops: retry limit reached, vector(packetBytes)"
vector 97 Network.host[2].wlan[0].mac.dcf packetReceivedFromPeer:vector(packetBytes) ETV
attr interpolationmode none
attr title "packets received, vector(packetBytes)"
vector 98 Network.host[2].wlan[0].mac.dcf packetReceivedFromPeerUnicast:vector(packetBytes) ETV
attr interpolationmode none
attr source ieee80211Unicast(packetReceivedFromPeer)
attr title "packets received: unicast, vector(packetBytes)"
vector 99 Network.host[2].wlan[0].mac.dcf packetReceivedFromPeerWithoutRetry:vector(packetBytes) ETV
attr interpolationmode none
attr source ieee80211NotRetry(packetReceivedFromPeer)
attr title "packets received: without retry, vector(packetBytes)"
vector 100 Network.host[0].wlan[0].mac.dcf packetReceivedFromPeerWithoutRetry:vector(packetBytes) ETV
attr interpolationmode none
attr source ieee80211NotRetry(packetReceivedFromPeer)
attr title "packets received: without retry, vector(packetBytes)"
vector 101 Network.host[0].app[0] throughput:vector ETV
attr source throughput(packetReceived)
attr title "throughput, vector"
attr unit bps
0	0	0	0
0	0	0	0
0	0	0	2
0	114	0.008309015593	3
0	122	0.008343015593	2
0	147	0.009125153759	3
0	155	0.009159153759	2
0	266	0.026476682029	3
0	275	0.026510682029	2
0	312	0.032008682029	3
0	319	0.032042682029	2
0	408	0.038493015593	3
0	415	0.038527015593	2
0	507	0.047189078483	3
0	516	0.047223078483	2
0	612	0.066020682029	3
0	621	0.066054682029	2
0	663	0.069452682029	3
0	672	0.069486682029	2
0	716	0.080965015593	3
0	724	0.080999015593	2
0	823	0.086596682029	3
0	832	0.086630682029	2
0	917	0.104321015593	3
0	925	0.104355015593	2
0	949	0.104517682721	3
0	956	0.104551682721	2
0	1027	0.106332606753	3
0	1035	0.106366606753	2
0	1098	0.109160940317	3
0	1106	0.109194940317	2
0	1129	0.111216940317	3
0	1137	0.111250940317	2
0	1160	0.113613412047	3
0	1169	0.113647412047	2
0	1199	0.117849412047	3
0	1207	0.117883412047	2
0	1258	0.125756468587	3
0	1266	0.125790468587	2
0	1296	0.126472606753	3
0	1304	0.126506606753	2
0	1340	0.129884940317	3
0	1347	0.129918940317	2
0	1406	0.146020682029	3
0	1414	0.146054682029	2
0	1435	0.147397349157	3
0	1443	0.147431349157	2
0	1468	0.147914016285	3
0	1475	0.147948016285	2
0	1511	0.165580468587	3
0	1518	0.165614468587	2
0	1549	0.166156940317	3
0	1556	0.166190940317	2
0	1578	0.166573607445	3
0	1585	0.166607607445	2
0	1621	0.170225607445	3
0	1629	0.170259607445	2
0	1650	0.174121607445	3
0	1658	0.174155607445	2
0	1679	0.174817607445	3
0	1687	0.174851607445	2
0	1835	0.187605078483	3
0	1844	0.187639078483	2
0	1937	0.206496682029	3
0	1946	0.206530682029	2
0	1989	0.224429015593	3
0	1996	0.224463015593	2
0	2047	0.227196682029	3
0	2055	0.227230682029	2
0	2076	0.229872682029	3
0	2084	0.229906682029	2
0	2178	0.248212682029	3
0	2187	0.248246682029	2
0	2208	0.248808682029	3
0	2216	0.248842682029	2
0	2247	0.259505015593	3
0	2255	0.259539015593	2
0	2280	0.260221682721	3
0	2287	0.260255682721	2
0	2382	0.266222488015	3
0	2390	0.266256488015	2
0	2415	0.269019155143	3
0	2423	0.269053155143	2
0	2452	0.275055155143	3
0	2460	0.275089155143	2
0	2564	0.287439293309	3
0	2572	0.287473293309	2
0	2666	0.306020682029	3
0	2674	0.306054682029	2
0	2734	0.318709349157	3
0	2741	0.318743349157	2
0	2810	0.326616682029	3
0	2818	0.326650682029	2
0	2944	0.341897153759	3
0	2952	0.341931153759	2
0	2988	0.346020682029	3
0	2996	0.346054682029	2
0	3073	0.366736682029	3
0	3082	0.366770682029	2
0	3103	0.367612682029	3
0	3111	0.367646682029	2
0	3215	0.386817487323	3
0	3223	0.386851487323	2
0	3309	0.406020682029	3
0	3316	0.406054682029	2
0	3356	0.415253349157	3
0	3363	0.415287349157	2
0	3421	0.418282016285	3
0	3429	0.418316016285	2
0	3486	0.426020682029	3
0	3495	0.426054682029	2
0	3538	0.442373349157	3
0	3546	0.442407349157	2
0	3581	0.446020682029	3
0	3589	0.446054682029	2
0	3645	0.452828682029	3
0	3653	0.452862682029	2
0	3814	0.469392682029	3
0	3823	0.469426682029	2
0	3850	0.474889015593	3
0	3859	0.474923015593	2
0	3898	0.486020682029	3
0	3905	0.486054682029	2
0	3926	0.491537349157	3
0	3934	0.491571349157	2
0	3976	0.497769349157	3
0	3983	0.497803349157	2
0	4040	0.507176682029	3
0	4049	0.507210682029	2
0	4076	0.517733015593	3
0	4084	0.517767015593	2
0	4173	0.528612682029	3
0	4182	0.528646682029	2
0	4207	0.541309015593	3
0	4215	0.541343015593	2
0	4240	0.542065682721	3
0	4248	0.542099682721	2
0	4287	0.544677682721	3
0	4295	0.544711682721	2
0	4330	0.546020682029	3
0	4338	0.546054682029	2
0	4357	0.549253682721	3
0	4364	0.549287682721	2
0	4405	0.550426349849	3
0	4413	0.550460349849	2
0	4457	0.551519016977	3
0	4465	0.551553016977	2
0	4544	0.557643684105	3
0	4552	0.557677684105	2
0	4584	0.564259684105	3
0	4592	0.564293684105	2
0	4628	0.566020682029	3
0	4637	0.566054682029	2
0	4659	0.569437015593	3
0	4667	0.569471015593	2
0	4706	0.570469682721	3
0	4713	0.570503682721	2
0	4732	0.572125682721	3
0	4739	0.572159682721	2
0	4801	0.574394349849	3
0	4809	0.574428349849	2
0	4941	0.592188682029	3
0	4950	0.592222682029	2
0	4970	0.593445015593	3
0	4977	0.593479015593	2
0	5003	0.593941682721	3
0	5011	0.593975682721	2
0	5034	0.594977682721	3
0	5042	0.595011682721	2
0	5081	0.597230154451	3
0	5088	0.597264154451	2
0	5110	0.597986154451	3
0	5117	0.598020154451	2
0	5140	0.598482626181	3
0	5148	0.598516626181	2
0	5190	0.599095293309	3
0	5198	0.599129293309	2
0	5271	0.606020682029	3
0	5279	0.606054682029	2
0	5300	0.606876682029	3
0	5309	0.606910682029	2
0	5339	0.615593015593	3
0	5346	0.615627015593	2
0	5370	0.616009682721	3
0	5379	0.616043682721	2
0	5402	0.617105682721	3
0	5409	0.617139682721	2
0	5465	0.625033682721	3
0	5473	0.625067682721	2
0	5549	0.628212682029	3
0	5558	0.628246682029	2
0	5580	0.631968682029	3
0	5588	0.632002682029	2
0	5609	0.633425349157	3
0	5617	0.633459349157	2
0	5661	0.646020682029	3
0	5669	0.646054682029	2
0	5757	0.656581015593	3
0	5764	0.656615015593	2
0	5822	0.660069682721	3
0	5829	0.660103682721	2
0	5871	0.661862349849	3
0	5880	0.661896349849	2
0	5901	0.662098349849	3
0	5909	0.662132349849	2
0	5947	0.664890349849	3
0	5955	0.664924349849	2
0	6023	0.669372682029	3
0	6030	0.669406682029	2
0	6079	0.682985349157	3
0	6086	0.683019349157	2
0	6149	0.686020682029	3
0	6157	0.686054682029	2
0	6199	0.689853349157	3
0	6207	0.689887349157	2
0	6229	0.691249349157	3
0	6237	0.691283349157	2
0	6284	0.706020682029	3
0	6291	0.706054682029	2
0	6361	0.726436682029	3
0	6370	0.726470682029	2
0	6441	0.731021015593	3
0	6449	0.731055015593	2
0	6470	0.735257015593	3
0	6477	0.735291015593	2
0	6552	0.746836682029	3
0	6559	0.746870682029	2
0	6595	0.748812682029	3
0	6604	0.748846682029	2
0	6625	0.749608682029	3
0	6634	0.749642682029	2
0	6682	0.760601015593	3
0	6690	0.760635015593	2
0	6738	0.767136682029	3
0	6745	0.767170682029	2
0	6835	0.786657487323	3
0	6844	0.786691487323	2
0	6869	0.802853820887	3
0	6876	0.802887820887	2
0	6946	0.806020682029	3
0	6954	0.806054682029	2
0	7015	0.807529015593	3
0	7022	0.807563015593	2
0	7057	0.812065015593	3
0	7065	0.812099015593	2
0	7090	0.813681153759	3
0	7099	0.813715153759	2
0	7160	0.824837153759	3
0	7169	0.824871153759	2
0	7237	0.826725959053	3
0	7244	0.826759959053	2
0	7298	0.828918430783	3
0	7306	0.828952430783	2
0	7415	0.846020682029	3
0	7423	0.846054682029	2
0	7510	0.866020682029	3
0	7518	0.866054682029	2
0	7573	0.876537015593	3
0	7580	0.876571015593	2
0	7601	0.882413015593	3
0	7608	0.882447015593	2
0	7632	0.882789682721	3
0	7639	0.882823682721	2
0	7663	0.883046349849	3
0	7670	0.883080349849	2
0	7806	0.889389015593	3
0	7814	0.889423015593	2
0	7865	0.894141487323	3
0	7874	0.894175487323	2
0	7895	0.894337487323	3
0	7903	0.894371487323	2
0	7931	0.899733487323	3
0	7939	0.899767487323	2
0	7964	0.904189487323	3
0	7972	0.904223487323	2
0	7999	0.905490154451	3
0	8006	0.905524154451	2
0	8070	0.906818959745	3
0	8079	0.906852959745	2
0	8121	0.908031293309	3
0	8129	0.908065293309	2
0	8151	0.910747293309	3
0	8159	0.910781293309	2
0	8225	0.926020682029	3
0	8233	0.926054682029	2
0	8286	0.946020682029	3
0	8294	0.946054682029	2
0	8334	0.949292682029	3
0	8343	0.949326682029	2
0	8454	0.964209015593	3
0	8462	0.964243015593	2
0	8529	0.967432682029	3
0	8537	0.967466682029	2
0	8577	0.981985349157	3
0	8584	0.982019349157	2
0	8610	0.982562016285	3
0	8618	0.982596016285	2
0	8640	0.983638016285	3
0	8648	0.983672016285	2
0	8670	0.984334016285	3
0	8678	0.984368016285	2
0	8704	0.985890016285	3
0	8712	0.985924016285	2
0	8808	0.988194488015	3
0	8816	0.988228488015	2
0	8879	0.994106959745	3
0	8887	0.994140959745	2
0	8933	0.997839293309	3
0	8941	0.997873293309	2
0	9016	1.000863960437	3
0	9024	1.000897960437	2
0	9050	1.001400627565	3
0	9058	1.001434627565	2
0	9166	1.018540765731	3
0	9175	1.018574765731	2
0	9212	1.019293571025	3
1	0	0	0
2	0	0	0
2	0	0	0
2	0	0	2
3	0	0	0
4	0	0	0
4	0	0	0
4	0	0	2
4	13	0.005488135023	3
4	19	0.005570135023	2
4	69	0.006440682029	3
4	75	0.006522682029	2
4	97	0.008216682029	3
4	103	0.008298682029	2
4	162	0.012269153759	3
4	168	0.012351153759	2
4	176	0.013205153759	3
4	182	0.013287153759	2
4	192	0.014221153759	3
4	198	0.014303153759	2
4	326	0.033676682029	3
4	332	0.033758682029	2
4	342	0.034192682029	3
4	348	0.034274682029	2
4	358	0.035048682029	3
4	364	0.035130682029	2
4	375	0.037764682029	3
4	381	0.037846682029	2
4	391	0.038400682029	3
4	397	0.038482682029	2
4	434	0.045488135023	3
4	440	0.045570135023	2
4	473	0.046560606753	3
4	479	0.046642606753	2
4	527	0.049213412047	3
4	533	0.049295412047	2
4	545	0.050829412047	3
4	551	0.050911412047	2
4	566	0.057345412047	3
4	572	0.057427412047	2
4	683	0.078476682029	3
4	689	0.078558682029	2
4	699	0.080872682029	3
4	705	0.080954682029	2
4	733	0.081108682029	3
4	739	0.081190682029	2
4	747	0.082504682029	3
4	753	0.082586682029	2
4	763	0.084360682029	3
4	769	0.084442682029	2
4	840	0.086940682029	3
4	846	0.087022682029	2
4	856	0.087656682029	3
4	862	0.087738682029	2
4	873	0.088712682029	3
4	879	0.088794682029	2
4	900	0.104228682029	3
4	906	0.104310682029	2
4	933	0.104425349157	3
4	939	0.104507349157	2
4	969	0.105488135023	3
4	975	0.105570135023	2
4	992	0.106004135023	3
4	998	0.106086135023	2
4	1080	0.109068606753	3
4	1086	0.109150606753	2
4	1115	0.111124606753	3
4	1121	0.111206606753	2
4	1227	0.125488135023	3
4	1233	0.125570135023	2
4	1241	0.125664135023	3
4	1247	0.125746135023	2
4	1313	0.128216606753	3
4	1319	0.128298606753	2
4	1327	0.129792606753	3
4	1333	0.129874606753	2
4	1356	0.133988606753	3
4	1362	0.134070606753	2
4	1422	0.147305015593	3
4	1428	0.147387015593	2
4	1452	0.147821682721	3
4	1458	0.147903682721	2
4	1494	0.165488135023	3
4	1500	0.165570135023	2
4	1565	0.166481273881	3
4	1571	0.166563273881	2
4	1594	0.168477273881	3
4	1600	0.168559273881	2
4	1608	0.170133273881	3
4	1614	0.170215273881	2
4	1637	0.174029273881	3
4	1643	0.174111273881	2
4	1666	0.174725273881	3
4	1672	0.174807273881	2
4	1703	0.179821273881	3
4	1709	0.179903273881	2
4	1730	0.185488135023	3
4	1736	0.185570135023	2
4	1751	0.186204135023	3
4	1764	0.186286135023	2
4	1799	0.187316606753	3
4	1805	0.187398606753	2
4	1851	0.188849078483	3
4	1857	0.188931078483	2
4	1868	0.192825078483	3
4	1874	0.192907078483	2
4	1953	0.210460682029	3
4	1959	0.210542682029	2
4	1973	0.224336682029	3
4	1979	0.224418682029	2
4	2100	0.241377015593	3
4	2106	0.241459015593	2
4	2230	0.259412682029	3
4	2236	0.259494682029	2
4	2263	0.260129349157	3
4	2269	0.260211349157	2
4	2295	0.260826016285	3
4	2301	0.260908016285	2
4	2309	0.261062016285	3
4	2315	0.261144016285	2
4	2325	0.261718016285	3
4	2331	0.261800016285	2
4	2344	0.265514016285	3
4	2350	0.265596016285	2
4	2398	0.268926821579	3
4	2404	0.269008821579	2
4	2439	0.274962821579	3
4	2445	0.275044821579	2
4	2475	0.285438821579	3
4	2486	0.285520821579	2
4	2494	0.285814821579	3
4	2500	0.285896821579	2
4	2533	0.286347293309	3
4	2539	0.286429293309	2
4	2581	0.288783626873	3
4	2587	0.288865626873	2
4	2599	0.291999626873	3
4	2605	0.292081626873	2
4	2617	0.296075626873	3
4	2623	0.296157626873	2
4	2684	0.310585015593	3
4	2690	0.310667015593	2
4	2700	0.313121015593	3
4	2706	0.313203015593	2
4	2718	0.318617015593	3
4	2724	0.318699015593	2
4	2751	0.323953015593	3
4	2757	0.324035015593	2
4	2883	0.337152682029	3
4	2889	0.337234682029	2
4	2901	0.339868682029	3
4	2907	0.339950682029	2
4	2917	0.341704682029	3
4	2923	0.341786682029	2
4	3008	0.353441153759	3
4	3014	0.353523153759	2
4	3120	0.369897015593	3
4	3126	0.369979015593	2
4	3142	0.385373015593	3
4	3148	0.385455015593	2
4	3182	0.386149015593	3
4	3188	0.386231015593	2
4	3230	0.390085015593	3
4	3236	0.390167015593	2
4	3246	0.391561015593	3
4	3252	0.391643015593	2
4	3266	0.400677015593	3
4	3272	0.400759015593	2
4	3324	0.410205015593	3
4	3330	0.410287015593	2
4	3339	0.415161015593	3
4	3345	0.415243015593	2
4	3372	0.415457682721	3
4	3378	0.415539682721	2
4	3386	0.415733682721	3
4	3392	0.415815682721	2
4	3404	0.418189682721	3
4	3410	0.418271682721	2
4	3438	0.422925682721	3
4	3444	0.423007682721	2
4	3505	0.431365015593	3
4	3511	0.431447015593	2
4	3525	0.442281015593	3
4	3531	0.442363015593	2
4	3664	0.458592682029	3
4	3670	0.458674682029	2
4	3680	0.458988682029	3
4	3686	0.459070682029	2
4	3698	0.460424682029	3
4	3704	0.460506682029	2
4	3716	0.462300682029	3
4	3722	0.462382682029	2
4	3736	0.464816682029	3
4	3742	0.464898682029	2
4	3833	0.474796682029	3
4	3839	0.474878682029	2
4	3913	0.491445015593	3
4	3919	0.491527015593	2
4	3942	0.495941015593	3
4	3949	0.496023015593	2
4	3960	0.497677015593	3
4	3966	0.497759015593	2
4	4062	0.517640682029	3
4	4068	0.517722682029	2
4	4093	0.525276682029	3
4	4099	0.525358682029	2
4	4194	0.541216682029	3
4	4200	0.541298682029	2
4	4223	0.541973349157	3
4	4229	0.542055349157	2
4	4256	0.543229349157	3
4	4262	0.543311349157	2
4	4274	0.544585349157	3
4	4280	0.544667349157	2
4	4345	0.549161349157	3
4	4351	0.549243349157	2
4	4371	0.549838016285	3
4	4377	0.549920016285	2
4	4387	0.550334016285	3
4	4393	0.550416016285	2
4	4422	0.550530683413	3
4	4428	0.550612683413	2
4	4440	0.551426683413	3
4	4446	0.551508683413	2
4	4474	0.552163350541	3
4	4480	0.552245350541	2
4	4490	0.552999350541	3
4	4496	0.553081350541	2
4	4509	0.553595350541	3
4	4515	0.553677350541	2
4	4527	0.557551350541	3
4	4533	0.557633350541	2
4	4571	0.564167350541	3
4	4577	0.564249350541	2
4	4646	0.569344682029	3
4	4652	0.569426682029	2
4	4676	0.569881349157	3
4	4682	0.569963349157	2
4	4690	0.570377349157	3
4	4696	0.570459349157	2
4	4720	0.572033349157	3
4	4726	0.572115349157	2
4	4747	0.572690016285	3
4	4753	0.572772016285	2
4	4763	0.573646016285	3
4	4769	0.573728016285	2
4	4783	0.574302016285	3
4	4789	0.574384016285	2
4	4821	0.578838016285	3
4	4827	0.578920016285	2
4	4848	0.584594016285	3
4	4854	0.584676016285	2
4	4958	0.593352682029	3
4	4964	0.593434682029	2
4	4986	0.593849349157	3
4	4992	0.593931349157	2
4	5021	0.594885349157	3
4	5027	0.594967349157	2
4	5069	0.597137820887	3
4	5075	0.597219820887	2
4	5097	0.597893820887	3
4	5103	0.597975820887	2
4	5156	0.598746959745	3
4	5163	0.598828959745	2
4	5173	0.599002959745	3
4	5179	0.599084959745	2
4	5205	0.601178959745	3
4	5211	0.601260959745	2
4	5226	0.604974959745	3
4	5233	0.605056959745	2
4	5327	0.615500682029	3
4	5333	0.615582682029	2
4	5353	0.615917349157	3
4	5359	0.615999349157	2
4	5390	0.617013349157	3
4	5396	0.617095349157	2
4	5418	0.619209349157	3
4	5424	0.619291349157	2
4	5436	0.619905349157	3
4	5442	0.619987349157	2
4	5452	0.624941349157	3
4	5458	0.625023349157	2
4	5596	0.633333015593	3
4	5602	0.633415015593	2
4	5676	0.649004682029	3
4	5682	0.649086682029	2
4	5692	0.649800682029	3
4	5698	0.649882682029	2
4	5708	0.650776682029	3
4	5714	0.650858682029	2
4	5724	0.651792682029	3
4	5730	0.651874682029	2
4	5740	0.656488682029	3
4	5746	0.656570682029	2
4	5774	0.656705349157	3
4	5780	0.656787349157	2
4	5790	0.657601349157	3
4	5796	0.657683349157	2
4	5806	0.659977349157	3
4	5812	0.660059349157	2
4	5837	0.660654016285	3
4	5843	0.660736016285	2
4	5854	0.661770016285	3
4	5860	0.661852016285	2
4	5888	0.662006016285	3
4	5894	0.662088016285	2
4	5918	0.663162016285	3
4	5924	0.663244016285	2
4	5934	0.664798016285	3
4	5940	0.664880016285	2
4	6053	0.681857015593	3
4	6059	0.681939015593	2
4	6067	0.682893015593	3
4	6073	0.682975015593	2
4	6094	0.683489682721	3
4	6100	0.683571682721	2
4	6108	0.684025682721	3
4	6114	0.684107682721	2
4	6166	0.686645015593	3
4	6172	0.686727015593	2
4	6182	0.689761015593	3
4	6188	0.689843015593	2
4	6216	0.691157015593	3
4	6222	0.691239015593	2
4	6298	0.708873015593	3
4	6304	0.708955015593	2
4	6378	0.728860682029	3
4	6384	0.728942682029	2
4	6392	0.729296682029	3
4	6398	0.729378682029	2
4	6410	0.730712682029	3
4	6416	0.730794682029	2
4	6424	0.730928682029	3
4	6430	0.731010682029	2
4	6458	0.735164682029	3
4	6464	0.735246682029	2
4	6492	0.740920682029	3
4	6498	0.741002682029	2
4	6567	0.748436682029	3
4	6573	0.748518682029	2
4	6647	0.758792682029	3
4	6655	0.758874682029	2
4	6665	0.760508682029	3
4	6671	0.760590682029	2
4	6759	0.778621015593	3
4	6765	0.778703015593	2
4	6775	0.781337015593	3
4	6781	0.781419015593	2
4	6798	0.785893015593	3
4	6809	0.785975015593	2
4	6856	0.802761487323	3
4	6862	0.802843487323	2
4	6885	0.803538154451	3
4	6891	0.803620154451	2
4	6901	0.804294154451	3
4	6907	0.804376154451	2
4	6999	0.807436682029	3
4	7005	0.807518682029	2
4	7044	0.811972682029	3
4	7050	0.812054682029	2
4	7114	0.818525153759	3
4	7120	0.818607153759	2
4	7128	0.822001153759	3
4	7135	0.822083153759	2
4	7182	0.825701153759	3
4	7188	0.825783153759	2
4	7221	0.826633625489	3
4	7227	0.826715625489	2
4	7264	0.827129625489	3
4	7272	0.827211625489	2
4	7313	0.829405625489	3
4	7319	0.829487625489	2
4	7328	0.832821625489	3
4	7334	0.832903625489	2
4	7352	0.837437625489	3
4	7358	0.837519625489	2
4	7371	0.840473625489	3
4	7377	0.840555625489	2
4	7431	0.848964682029	3
4	7437	0.849046682029	2
4	7450	0.858980682029	3
4	7457	0.859062682029	2
4	7467	0.863736682029	3
4	7473	0.863818682029	2
4	7526	0.871812682029	3
4	7532	0.871894682029	2
4	7542	0.876048682029	3
4	7549	0.876130682029	2
4	7557	0.876444682029	3
4	7563	0.876526682029	2
4	7588	0.882320682029	3
4	7594	0.882402682029	2
4	7616	0.882697349157	3
4	7622	0.882779349157	2
4	7647	0.882954016285	3
4	7653	0.883036016285	2
4	7678	0.883650683413	3
4	7684	0.883732683413	2
4	7694	0.884946683413	3
4	7700	0.885028683413	2
4	7755	0.887684682029	3
4	7761	0.887766682029	2
4	7773	0.888080682029	3
4	7779	0.888162682029	2
4	7789	0.889296682029	3
4	7795	0.889378682029	2
4	7982	0.905397820887	3
4	7988	0.905479820887	2
4	8013	0.905674488015	3
4	8019	0.905756488015	2
4	8086	0.907422959745	3
4	8092	0.907504959745	2
4	8104	0.907938959745	3
4	8110	0.908020959745	2
4	8138	0.910654959745	3
4	8144	0.910736959745	2
4	8170	0.914890959745	3
4	8176	0.914972959745	2
4	8240	0.932624682029	3
4	8246	0.932706682029	2
4	8350	0.952396682029	3
4	8356	0.952478682029	2
4	8364	0.952992682029	3
4	8370	0.953074682029	2
4	8382	0.954028682029	3
4	8388	0.954110682029	2
4	8398	0.954544682029	3
4	8404	0.954626682029	2
4	8416	0.956880682029	3
4	8422	0.956962682029	2
4	8436	0.964116682029	3
4	8442	0.964198682029	2
4	8551	0.979557015593	3
4	8557	0.979639015593	2
4	8565	0.981893015593	3
4	8571	0.981975015593	2
4	8593	0.982469682721	3
4	8599	0.982551682721	2
4	8627	0.983545682721	3
4	8633	0.983627682721	2
4	8656	0.984241682721	3
4	8662	0.984323682721	2
4	8691	0.985797682721	3
4	8697	0.985879682721	2
4	8741	0.986790154451	3
4	8747	0.986872154451	2
4	8775	0.987386154451	3
4	8781	0.987468154451	2
4	8791	0.988102154451	3
4	8797	0.988184154451	2
4	8842	0.991098154451	3
4	8848	0.991180154451	2
4	8920	0.997746959745	3
4	8926	0.997828959745	2
4	8952	0.998343626873	3
4	8958	0.998425626873	2
4	8968	0.999079626873	3
4	8974	0.999161626873	2
4	8985	1.000055626873	3
4	8991	1.000137626873	2
4	8999	1.000771626873	3
4	9005	1.000853626873	2
4	9033	1.001308294001	3
4	9039	1.001390294001	2
4	9065	1.002644294001	3
4	9071	1.002726294001	2
4	9083	1.004900294001	3
4	9089	1.004982294001	2
4	9110	1.008216294001	3
4	9116	1.008298294001	2
4	9131	1.011252294001	3
4	9137	1.011334294001	2
4	9199	1.019201237461	3
4	9205	1.019283237461	2
5	0	0	0
6	0	0	0
6	0	0	0
6	0	0	2
6	33	0.005928446164	3
6	39	0.006010446164	2
6	51	0.006124446164	3
6	57	0.006206446164	2
6	83	0.007040446164	3
6	89	0.007122446164	2
6	130	0.009032917894	3
6	136	0.009114917894	2
6	230	0.025928446164	3
6	236	0.026010446164	2
6	248	0.026384446164	3
6	254	0.026466446164	2
6	282	0.028880446164	3
6	288	0.028962446164	2
6	300	0.031916446164	3
6	306	0.031998446164	2
6	457	0.046104370888	3
6	463	0.046186370888	2
6	489	0.047096842618	3
6	495	0.047178842618	2
6	594	0.065928446164	3
6	600	0.066010446164	2
6	630	0.067184446164	3
6	636	0.067266446164	2
6	649	0.069360446164	3
6	655	0.069442446164	2
6	789	0.085928446164	3
6	795	0.086010446164	2
6	805	0.086504446164	3
6	811	0.086586446164	2
6	1010	0.106240370888	3
6	1016	0.106322370888	2
6	1044	0.106556370888	3
6	1050	0.106638370888	2
6	1062	0.108592370888	3
6	1068	0.108674370888	2
6	1146	0.113521176182	3
6	1152	0.113603176182	2
6	1186	0.117757176182	3
6	1192	0.117839176182	2
6	1279	0.126380370888	3
6	1285	0.126462370888	2
6	1389	0.145928446164	3
6	1395	0.146010446164	2
6	1533	0.166064704452	3
6	1539	0.166146704452	2
6	1758	0.186264370888	3
6	1771	0.186346370888	2
6	1781	0.186640370888	3
6	1787	0.186722370888	2
6	1817	0.187512842618	3
6	1823	0.187594842618	2
6	1903	0.205928446164	3
6	1909	0.206010446164	2
6	1919	0.206404446164	3
6	1925	0.206486446164	2
6	2014	0.225928446164	3
6	2020	0.226010446164	2
6	2030	0.227104446164	3
6	2036	0.227186446164	2
6	2063	0.229780446164	3
6	2069	0.229862446164	2
6	2124	0.245928446164	3
6	2130	0.246010446164	2
6	2142	0.246864446164	3
6	2148	0.246946446164	2
6	2160	0.248120446164	3
6	2166	0.248202446164	2
6	2195	0.248716446164	3
6	2201	0.248798446164	2
6	2365	0.26613025215	3
6	2371	0.26621225215	2
6	2515	0.286111057444	3
6	2521	0.286193057444	2
6	2547	0.287347057444	3
6	2553	0.287429057444	2
6	2649	0.305928446164	3
6	2655	0.306010446164	2
6	2777	0.325928446164	3
6	2783	0.326010446164	2
6	2793	0.326524446164	3
6	2799	0.326606446164	2
6	2827	0.327500446164	3
6	2833	0.327582446164	2
6	2843	0.328416446164	3
6	2849	0.328498446164	2
6	2864	0.334352446164	3
6	2870	0.334434446164	2
6	2929	0.341804917894	3
6	2937	0.341886917894	2
6	2971	0.345928446164	3
6	2977	0.346010446164	2
6	3037	0.365928446164	3
6	3043	0.366010446164	2
6	3055	0.366644446164	3
6	3061	0.366726446164	2
6	3090	0.367520446164	3
6	3096	0.367602446164	2
6	3166	0.385928446164	3
6	3172	0.386010446164	2
6	3198	0.386725251458	3
6	3204	0.386807251458	2
6	3293	0.405928446164	3
6	3299	0.406010446164	2
6	3468	0.425928446164	3
6	3474	0.426010446164	2
6	3564	0.445928446164	3
6	3570	0.446010446164	2
6	3596	0.447124446164	3
6	3602	0.447206446164	2
6	3614	0.447520446164	3
6	3620	0.447602446164	2
6	3632	0.452736446164	3
6	3638	0.452818446164	2
6	3762	0.465928446164	3
6	3768	0.466010446164	2
6	3778	0.466604446164	3
6	3784	0.466686446164	2
6	3796	0.469300446164	3
6	3802	0.469382446164	2
6	3882	0.485928446164	3
6	3888	0.486010446164	2
6	4003	0.505928446164	3
6	4009	0.506010446164	2
6	4022	0.507084446164	3
6	4028	0.507166446164	2
6	4117	0.525928446164	3
6	4123	0.526010446164	2
6	4135	0.526844446164	3
6	4141	0.526926446164	2
6	4155	0.528520446164	3
6	4161	0.528602446164	2
6	4313	0.545928446164	3
6	4319	0.546010446164	2
6	4610	0.565928446164	3
6	4616	0.566010446164	2
6	4872	0.585928446164	3
6	4878	0.586010446164	2
6	4888	0.586204446164	3
6	4894	0.586286446164	2
6	4904	0.588700446164	3
6	4910	0.588782446164	2
6	4923	0.592096446164	3
6	4929	0.592178446164	2
6	5049	0.595801585022	3
6	5055	0.595883585022	2
6	5127	0.598390390316	3
6	5133	0.598472390316	2
6	5254	0.605928446164	3
6	5260	0.606010446164	2
6	5286	0.606784446164	3
6	5292	0.606866446164	2
6	5493	0.625928446164	3
6	5500	0.626010446164	2
6	5513	0.626644446164	3
6	5519	0.626726446164	2
6	5531	0.628120446164	3
6	5537	0.628202446164	2
6	5567	0.631876446164	3
6	5573	0.631958446164	2
6	5644	0.645928446164	3
6	5650	0.646010446164	2
6	5973	0.665928446164	3
6	5979	0.666010446164	2
6	5990	0.666604446164	3
6	5997	0.666686446164	2
6	6007	0.669280446164	3
6	6013	0.669362446164	2
6	6132	0.685928446164	3
6	6138	0.686010446164	2
6	6268	0.705928446164	3
6	6274	0.706010446164	2
6	6325	0.725928446164	3
6	6331	0.726010446164	2
6	6343	0.726344446164	3
6	6349	0.726426446164	2
6	6520	0.745928446164	3
6	6526	0.746010446164	2
6	6536	0.746744446164	3
6	6542	0.746826446164	2
6	6581	0.748720446164	3
6	6587	0.748802446164	2
6	6611	0.749516446164	3
6	6617	0.749598446164	2
6	6708	0.765928446164	3
6	6714	0.766010446164	2
6	6722	0.767044446164	3
6	6728	0.767126446164	2
6	6817	0.786565251458	3
6	6823	0.786647251458	2
6	6929	0.805928446164	3
6	6935	0.806010446164	2
6	6963	0.806384446164	3
6	6969	0.806466446164	2
6	6981	0.807100446164	3
6	6987	0.807182446164	2
6	7030	0.807916446164	3
6	7036	0.807998446164	2
6	7075	0.813588917894	3
6	7082	0.813670917894	2
6	7146	0.824744917894	3
6	7152	0.824826917894	2
6	7203	0.826357389624	3
6	7209	0.826439389624	2
6	7252	0.827030194918	3
6	7258	0.827112194918	2
6	7281	0.828826194918	3
6	7287	0.828908194918	2
6	7398	0.845928446164	3
6	7404	0.846010446164	2
6	7493	0.865928446164	3
6	7499	0.866010446164	2
6	7718	0.885928446164	3
6	7724	0.886010446164	2
6	7739	0.886764446164	3
6	7745	0.886846446164	2
6	7822	0.889913251458	3
6	7828	0.889995251458	2
6	7847	0.894049251458	3
6	7853	0.894131251458	2
6	7882	0.894245251458	3
6	7888	0.894327251458	2
6	7918	0.899641251458	3
6	7924	0.899723251458	2
6	7949	0.904097251458	3
6	7957	0.904179251458	2
6	8034	0.90641072388	3
6	8040	0.90649272388	2
6	8052	0.90672672388	3
6	8058	0.90680872388	2
6	8208	0.925928446164	3
6	8214	0.926010446164	2
6	8269	0.945928446164	3
6	8275	0.946010446164	2
6	8302	0.947084446164	3
6	8308	0.947166446164	2
6	8320	0.949200446164	3
6	8326	0.949282446164	2
6	8481	0.965928446164	3
6	8487	0.966010446164	2
6	8497	0.966844446164	3
6	8503	0.966926446164	2
6	8512	0.967340446164	3
6	8518	0.967422446164	2
6	8725	0.986573918586	3
6	8731	0.986655918586	2
6	8759	0.987046390316	3
6	8765	0.987128390316	2
6	8825	0.98925872388	3
6	8831	0.98934072388	2
6	8862	0.99401472388	3
6	8868	0.99409672388	2
6	8901	0.99745072388	3
6	8908	0.99753272388	2
6	9152	1.018448529866	3
6	9158	1.018530529866	2
6	9183	1.018865001596	3
6	9189	1.018947001596	2
7	0	0	0
8	0	0	1
8	100	0.008217015593	3
8	106	0.008299015593	1
8	114	0.008309015593	0
8	122	0.008343015593	1
8	132	0.009033153759	3
8	137	0.009115153759	1
8	147	0.009125153759	0
8	155	0.009159153759	1
8	250	0.026384682029	3
8	255	0.026466682029	1
8	266	0.026476682029	0
8	275	0.026510682029	1
8	302	0.031916682029	3
8	307	0.031998682029	1
8	312	0.032008682029	0
8	319	0.032042682029	1
8	394	0.038401015593	3
8	399	0.038483015593	1
8	408	0.038493015593	0
8	415	0.038527015593	1
8	491	0.047097078483	3
8	496	0.047179078483	1
8	507	0.047189078483	0
8	516	0.047223078483	1
8	596	0.065928682029	3
8	601	0.066010682029	1
8	612	0.066020682029	0
8	621	0.066054682029	1
8	651	0.069360682029	3
8	656	0.069442682029	1
8	663	0.069452682029	0
8	672	0.069486682029	1
8	702	0.080873015593	3
8	708	0.080955015593	1
8	716	0.080965015593	0
8	724	0.080999015593	1
8	807	0.086504682029	3
8	812	0.086586682029	1
8	823	0.086596682029	0
8	832	0.086630682029	1
8	903	0.104229015593	3
8	909	0.104311015593	1
8	917	0.104321015593	0
8	925	0.104355015593	1
8	936	0.104425682721	3
8	941	0.104507682721	1
8	949	0.104517682721	0
8	956	0.104551682721	1
8	1012	0.106240606753	3
8	1017	0.106322606753	1
8	1027	0.106332606753	0
8	1035	0.106366606753	1
8	1083	0.109068940317	3
8	1089	0.109150940317	1
8	1098	0.109160940317	0
8	1106	0.109194940317	1
8	1118	0.111124940317	3
8	1124	0.111206940317	1
8	1129	0.111216940317	0
8	1137	0.111250940317	1
8	1148	0.113521412047	3
8	1153	0.113603412047	1
8	1160	0.113613412047	0
8	1169	0.113647412047	1
8	1188	0.117757412047	3
8	1193	0.117839412047	1
8	1199	0.117849412047	0
8	1207	0.117883412047	1
8	1244	0.125664468587	3
8	1250	0.125746468587	1
8	1258	0.125756468587	0
8	1266	0.125790468587	1
8	1281	0.126380606753	3
8	1286	0.126462606753	1
8	1296	0.126472606753	0
8	1304	0.126506606753	1
8	1330	0.129792940317	3
8	1335	0.129874940317	1
8	1340	0.129884940317	0
8	1347	0.129918940317	1
8	1391	0.145928682029	3
8	1396	0.146010682029	1
8	1406	0.146020682029	0
8	1414	0.146054682029	1
8	1425	0.147305349157	3
8	1431	0.147387349157	1
8	1435	0.147397349157	0
8	1443	0.147431349157	1
8	1455	0.147822016285	3
8	1460	0.147904016285	1
8	1468	0.147914016285	0
8	1475	0.147948016285	1
8	1497	0.165488468587	3
8	1502	0.165570468587	1
8	1511	0.165580468587	0
8	1518	0.165614468587	1
8	1535	0.166064940317	3
8	1540	0.166146940317	1
8	1549	0.166156940317	0
8	1556	0.166190940317	1
8	1568	0.166481607445	3
8	1573	0.166563607445	1
8	1578	0.166573607445	0
8	1585	0.166607607445	1
8	1611	0.170133607445	3
8	1617	0.170215607445	1
8	1621	0.170225607445	0
8	1629	0.170259607445	1
8	1640	0.174029607445	3
8	1646	0.174111607445	1
8	1650	0.174121607445	0
8	1658	0.174155607445	1
8	1669	0.174725607445	3
8	1675	0.174807607445	1
8	1679	0.174817607445	0
8	1687	0.174851607445	1
8	1819	0.187513078483	3
8	1824	0.187595078483	1
8	1835	0.187605078483	0
8	1844	0.187639078483	1
8	1921	0.206404682029	3
8	1926	0.206486682029	1
8	1937	0.206496682029	0
8	1946	0.206530682029	1
8	1976	0.224337015593	3
8	1981	0.224419015593	1
8	1989	0.224429015593	0
8	1996	0.224463015593	1
8	2032	0.227104682029	3
8	2037	0.227186682029	1
8	2047	0.227196682029	0
8	2055	0.227230682029	1
8	2065	0.229780682029	3
8	2070	0.229862682029	1
8	2076	0.229872682029	0
8	2084	0.229906682029	1
8	2162	0.248120682029	3
8	2167	0.248202682029	1
8	2178	0.248212682029	0
8	2187	0.248246682029	1
8	2197	0.248716682029	3
8	2202	0.248798682029	1
8	2208	0.248808682029	0
8	2216	0.248842682029	1
8	2233	0.259413015593	3
8	2239	0.259495015593	1
8	2247	0.259505015593	0
8	2255	0.259539015593	1
8	2266	0.260129682721	3
8	2271	0.260211682721	1
8	2280	0.260221682721	0
8	2287	0.260255682721	1
8	2367	0.266130488015	3
8	2372	0.266212488015	1
8	2382	0.266222488015	0
8	2390	0.266256488015	1
8	2401	0.268927155143	3
8	2407	0.269009155143	1
8	2415	0.269019155143	0
8	2423	0.269053155143	1
8	2442	0.274963155143	3
8	2448	0.275045155143	1
8	2452	0.275055155143	0
8	2460	0.275089155143	1
8	2549	0.287347293309	3
8	2554	0.287429293309	1
8	2564	0.287439293309	0
8	2572	0.287473293309	1
8	2651	0.305928682029	3
8	2656	0.306010682029	1
8	2666	0.306020682029	0
8	2674	0.306054682029	1
8	2721	0.318617349157	3
8	2726	0.318699349157	1
8	2734	0.318709349157	0
8	2741	0.318743349157	1
8	2795	0.326524682029	3
8	2800	0.326606682029	1
8	2810	0.326616682029	0
8	2818	0.326650682029	1
8	2931	0.341805153759	3
8	2938	0.341887153759	1
8	2944	0.341897153759	0
8	2952	0.341931153759	1
8	2973	0.345928682029	3
8	2978	0.346010682029	1
8	2988	0.346020682029	0
8	2996	0.346054682029	1
8	3057	0.366644682029	3
8	3062	0.366726682029	1
8	3073	0.366736682029	0
8	3082	0.366770682029	1
8	3092	0.367520682029	3
8	3097	0.367602682029	1
8	3103	0.367612682029	0
8	3111	0.367646682029	1
8	3200	0.386725487323	3
8	3205	0.386807487323	1
8	3215	0.386817487323	0
8	3223	0.386851487323	1
8	3295	0.405928682029	3
8	3300	0.406010682029	1
8	3309	0.406020682029	0
8	3316	0.406054682029	1
8	3342	0.415161349157	3
8	3347	0.415243349157	1
8	3356	0.415253349157	0
8	3363	0.415287349157	1
8	3407	0.418190016285	3
8	3413	0.418272016285	1
8	3421	0.418282016285	0
8	3429	0.418316016285	1
8	3470	0.425928682029	3
8	3475	0.426010682029	1
8	3486	0.426020682029	0
8	3495	0.426054682029	1
8	3528	0.442281349157	3
8	3534	0.442363349157	1
8	3538	0.442373349157	0
8	3546	0.442407349157	1
8	3566	0.445928682029	3
8	3571	0.446010682029	1
8	3581	0.446020682029	0
8	3589	0.446054682029	1
8	3634	0.452736682029	3
8	3639	0.452818682029	1
8	3645	0.452828682029	0
8	3653	0.452862682029	1
8	3798	0.469300682029	3
8	3803	0.469382682029	1
8	3814	0.469392682029	0
8	3823	0.469426682029	1
8	3836	0.474797015593	3
8	3842	0.474879015593	1
8	3850	0.474889015593	0
8	3859	0.474923015593	1
8	3884	0.485928682029	3
8	3889	0.486010682029	1
8	3898	0.486020682029	0
8	3905	0.486054682029	1
8	3916	0.491445349157	3
8	3922	0.491527349157	1
8	3926	0.491537349157	0
8	3934	0.491571349157	1
8	3963	0.497677349157	3
8	3968	0.497759349157	1
8	3976	0.497769349157	0
8	3983	0.497803349157	1
8	4024	0.507084682029	3
8	4029	0.507166682029	1
8	4040	0.507176682029	0
8	4049	0.507210682029	1
8	4065	0.517641015593	3
8	4071	0.517723015593	1
8	4076	0.517733015593	0
8	4084	0.517767015593	1
8	4157	0.528520682029	3
8	4162	0.528602682029	1
8	4173	0.528612682029	0
8	4182	0.528646682029	1
8	4197	0.541217015593	3
8	4203	0.541299015593	1
8	4207	0.541309015593	0
8	4215	0.541343015593	1
8	4226	0.541973682721	3
8	4232	0.542055682721	1
8	4240	0.542065682721	0
8	4248	0.542099682721	1
8	4277	0.544585682721	3
8	4283	0.544667682721	1
8	4287	0.544677682721	0
8	4295	0.544711682721	1
8	4315	0.545928682029	3
8	4320	0.546010682029	1
8	4330	0.546020682029	0
8	4338	0.546054682029	1
8	4348	0.549161682721	3
8	4353	0.549243682721	1
8	4357	0.549253682721	0
8	4364	0.549287682721	1
8	4390	0.550334349849	3
8	4396	0.550416349849	1
8	4405	0.550426349849	0
8	4413	0.550460349849	1
8	4443	0.551427016977	3
8	4449	0.551509016977	1
8	4457	0.551519016977	0
8	4465	0.551553016977	1
8	4530	0.557551684105	3
8	4536	0.557633684105	1
8	4544	0.557643684105	0
8	4552	0.557677684105	1
8	4574	0.564167684105	3
8	4580	0.564249684105	1
8	4584	0.564259684105	0
8	4592	0.564293684105	1
8	4612	0.565928682029	3
8	4617	0.566010682029	1
8	4628	0.566020682029	0
8	4637	0.566054682029	1
8	4649	0.569345015593	3
8	4655	0.569427015593	1
8	4659	0.569437015593	0
8	4667	0.569471015593	1
8	4693	0.570377682721	3
8	4698	0.570459682721	1
8	4706	0.570469682721	0
8	4713	0.570503682721	1
8	4723	0.572033682721	3
8	4728	0.572115682721	1
8	4732	0.572125682721	0
8	4739	0.572159682721	1
8	4786	0.574302349849	3
8	4792	0.574384349849	1
8	4801	0.574394349849	0
8	4809	0.574428349849	1
8	4925	0.592096682029	3
8	4930	0.592178682029	1
8	4941	0.592188682029	0
8	4950	0.592222682029	1
8	4961	0.593353015593	3
8	4966	0.593435015593	1
8	4970	0.593445015593	0
8	4977	0.593479015593	1
8	4989	0.593849682721	3
8	4995	0.593931682721	1
8	5003	0.593941682721	0
8	5011	0.593975682721	1
8	5024	0.594885682721	3
8	5030	0.594967682721	1
8	5034	0.594977682721	0
8	5042	0.595011682721	1
8	5072	0.597138154451	3
8	5077	0.597220154451	1
8	5081	0.597230154451	0
8	5088	0.597264154451	1
8	5100	0.597894154451	3
8	5105	0.597976154451	1
8	5110	0.597986154451	0
8	5117	0.598020154451	1
8	5129	0.598390626181	3
8	5134	0.598472626181	1
8	5140	0.598482626181	0
8	5148	0.598516626181	1
8	5176	0.599003293309	3
8	5182	0.599085293309	1
8	5190	0.599095293309	0
8	5198	0.599129293309	1
8	5256	0.605928682029	3
8	5261	0.606010682029	1
8	5271	0.606020682029	0
8	5279	0.606054682029	1
8	5288	0.606784682029	3
8	5293	0.606866682029	1
8	5300	0.606876682029	0
8	5309	0.606910682029	1
8	5330	0.615501015593	3
8	5335	0.615583015593	1
8	5339	0.615593015593	0
8	5346	0.615627015593	1
8	5356	0.615917682721	3
8	5362	0.615999682721	1
8	5370	0.616009682721	0
8	5379	0.616043682721	1
8	5393	0.617013682721	3
8	5398	0.617095682721	1
8	5402	0.617105682721	0
8	5409	0.617139682721	1
8	5455	0.624941682721	3
8	5461	0.625023682721	1
8	5465	0.625033682721	0
8	5473	0.625067682721	1
8	5533	0.628120682029	3
8	5538	0.628202682029	1
8	5549	0.628212682029	0
8	5558	0.628246682029	1
8	5569	0.631876682029	3
8	5574	0.631958682029	1
8	5580	0.631968682029	0
8	5588	0.632002682029	1
8	5599	0.633333349157	3
8	5605	0.633415349157	1
8	5609	0.633425349157	0
8	5617	0.633459349157	1
8	5646	0.645928682029	3
8	5651	0.646010682029	1
8	5661	0.646020682029	0
8	5669	0.646054682029	1
8	5743	0.656489015593	3
8	5748	0.656571015593	1
8	5757	0.656581015593	0
8	5764	0.656615015593	1
8	5809	0.659977682721	3
8	5814	0.660059682721	1
8	5822	0.660069682721	0
8	5829	0.660103682721	1
8	5857	0.661770349849	3
8	5863	0.661852349849	1
8	5871	0.661862349849	0
8	5880	0.661896349849	1
8	5891	0.662006349849	3
8	5897	0.662088349849	1
8	5901	0.662098349849	0
8	5909	0.662132349849	1
8	5937	0.664798349849	3
8	5943	0.664880349849	1
8	5947	0.664890349849	0
8	5955	0.664924349849	1
8	6009	0.669280682029	3
8	6014	0.669362682029	1
8	6023	0.669372682029	0
8	6030	0.669406682029	1
8	6070	0.682893349157	3
8	6075	0.682975349157	1
8	6079	0.682985349157	0
8	6086	0.683019349157	1
8	6134	0.685928682029	3
8	6139	0.686010682029	1
8	6149	0.686020682029	0
8	6157	0.686054682029	1
8	6185	0.689761349157	3
8	6191	0.689843349157	1
8	6199	0.689853349157	0
8	6207	0.689887349157	1
8	6219	0.691157349157	3
8	6225	0.691239349157	1
8	6229	0.691249349157	0
8	6237	0.691283349157	1
8	6270	0.705928682029	3
8	6275	0.706010682029	1
8	6284	0.706020682029	0
8	6291	0.706054682029	1
8	6345	0.726344682029	3
8	6350	0.726426682029	1
8	6361	0.726436682029	0
8	6370	0.726470682029	1
8	6427	0.730929015593	3
8	6433	0.731011015593	1
8	6441	0.731021015593	0
8	6449	0.731055015593	1
8	6461	0.735165015593	3
8	6466	0.735247015593	1
8	6470	0.735257015593	0
8	6477	0.735291015593	1
8	6538	0.746744682029	3
8	6543	0.746826682029	1
8	6552	0.746836682029	0
8	6559	0.746870682029	1
8	6583	0.748720682029	3
8	6588	0.748802682029	1
8	6595	0.748812682029	0
8	6604	0.748846682029	1
8	6613	0.749516682029	3
8	6618	0.749598682029	1
8	6625	0.749608682029	0
8	6634	0.749642682029	1
8	6668	0.760509015593	3
8	6674	0.760591015593	1
8	6682	0.760601015593	0
8	6690	0.760635015593	1
8	6724	0.767044682029	3
8	6729	0.767126682029	1
8	6738	0.767136682029	0
8	6745	0.767170682029	1
8	6819	0.786565487323	3
8	6824	0.786647487323	1
8	6835	0.786657487323	0
8	6844	0.786691487323	1
8	6859	0.802761820887	3
8	6864	0.802843820887	1
8	6869	0.802853820887	0
8	6876	0.802887820887	1
8	6931	0.805928682029	3
8	6936	0.806010682029	1
8	6946	0.806020682029	0
8	6954	0.806054682029	1
8	7002	0.807437015593	3
8	7007	0.807519015593	1
8	7015	0.807529015593	0
8	7022	0.807563015593	1
8	7047	0.811973015593	3
8	7053	0.812055015593	1
8	7057	0.812065015593	0
8	7065	0.812099015593	1
8	7077	0.813589153759	3
8	7083	0.813671153759	1
8	7090	0.813681153759	0
8	7099	0.813715153759	1
8	7148	0.824745153759	3
8	7153	0.824827153759	1
8	7160	0.824837153759	0
8	7169	0.824871153759	1
8	7224	0.826633959053	3
8	7229	0.826715959053	1
8	7237	0.826725959053	0
8	7244	0.826759959053	1
8	7283	0.828826430783	3
8	7288	0.828908430783	1
8	7298	0.828918430783	0
8	7306	0.828952430783	1
8	7400	0.845928682029	3
8	7405	0.846010682029	1
8	7415	0.846020682029	0
8	7423	0.846054682029	1
8	7495	0.865928682029	3
8	7500	0.866010682029	1
8	7510	0.866020682029	0
8	7518	0.866054682029	1
8	7560	0.876445015593	3
8	7565	0.876527015593	1
8	7573	0.876537015593	0
8	7580	0.876571015593	1
8	7591	0.882321015593	3
8	7596	0.882403015593	1
8	7601	0.882413015593	0
8	7608	0.882447015593	1
8	7619	0.882697682721	3
8	7624	0.882779682721	1
8	7632	0.882789682721	0
8	7639	0.882823682721	1
8	7650	0.882954349849	3
8	7655	0.883036349849	1
8	7663	0.883046349849	0
8	7670	0.883080349849	1
8	7792	0.889297015593	3
8	7798	0.889379015593	1
8	7806	0.889389015593	0
8	7814	0.889423015593	1
8	7849	0.894049487323	3
8	7854	0.894131487323	1
8	7865	0.894141487323	0
8	7874	0.894175487323	1
8	7884	0.894245487323	3
8	7889	0.894327487323	1
8	7895	0.894337487323	0
8	7903	0.894371487323	1
8	7920	0.899641487323	3
8	7925	0.899723487323	1
8	7931	0.899733487323	0
8	7939	0.899767487323	1
8	7951	0.904097487323	3
8	7958	0.904179487323	1
8	7964	0.904189487323	0
8	7972	0.904223487323	1
8	7985	0.905398154451	3
8	7990	0.905480154451	1
8	7999	0.905490154451	0
8	8006	0.905524154451	1
8	8054	0.906726959745	3
8	8059	0.906808959745	1
8	8070	0.906818959745	0
8	8079	0.906852959745	1
8	8107	0.907939293309	3
8	8113	0.908021293309	1
8	8121	0.908031293309	0
8	8129	0.908065293309	1
8	8141	0.910655293309	3
8	8147	0.910737293309	1
8	8151	0.910747293309	0
8	8159	0.910781293309	1
8	8210	0.925928682029	3
8	8215	0.926010682029	1
8	8225	0.926020682029	0
8	8233	0.926054682029	1
8	8271	0.945928682029	3
8	8276	0.946010682029	1
8	8286	0.946020682029	0
8	8294	0.946054682029	1
8	8322	0.949200682029	3
8	8327	0.949282682029	1
8	8334	0.949292682029	0
8	8343	0.949326682029	1
8	8439	0.964117015593	3
8	8445	0.964199015593	1
8	8454	0.964209015593	0
8	8462	0.964243015593	1
8	8514	0.967340682029	3
8	8519	0.967422682029	1
8	8529	0.967432682029	0
8	8537	0.967466682029	1
8	8568	0.981893349157	3
8	8573	0.981975349157	1
8	8577	0.981985349157	0
8	8584	0.982019349157	1
8	8596	0.982470016285	3
8	8602	0.982552016285	1
8	8610	0.982562016285	0
8	8618	0.982596016285	1
8	8630	0.983546016285	3
8	8636	0.983628016285	1
8	8640	0.983638016285	0
8	8648	0.983672016285	1
8	8659	0.984242016285	3
8	8665	0.984324016285	1
8	8670	0.984334016285	0
8	8678	0.984368016285	1
8	8694	0.985798016285	3
8	8700	0.985880016285	1
8	8704	0.985890016285	0
8	8712	0.985924016285	1
8	8794	0.988102488015	3
8	8800	0.988184488015	1
8	8808	0.988194488015	0
8	8816	0.988228488015	1
8	8864	0.994014959745	3
8	8869	0.994096959745	1
8	8879	0.994106959745	0
8	8887	0.994140959745	1
8	8923	0.997747293309	3
8	8929	0.997829293309	1
8	8933	0.997839293309	0
8	8941	0.997873293309	1
8	9002	1.000771960437	3
8	9008	1.000853960437	1
8	9016	1.000863960437	0
8	9024	1.000897960437	1
8	9036	1.001308627565	3
8	9042	1.001390627565	1
8	9050	1.001400627565	0
8	9058	1.001434627565	1
8	9154	1.018448765731	3
8	9159	1.018530765731	1
8	9166	1.018540765731	0
8	9175	1.018574765731	1
8	9202	1.019201571025	3
8	9208	1.019283571025	1
8	9212	1.019293571025	0
9	0	0	1
9	36	0.005928682029	3
9	41	0.006010682029	1
9	54	0.006124682029	3
9	59	0.006206682029	1
9	117	0.008309349157	3
9	124	0.008343349157	1
9	233	0.025928682029	3
9	238	0.026010682029	1
9	251	0.026384682029	3
9	256	0.026466682029	1
9	285	0.028880682029	3
9	290	0.028962682029	1
9	395	0.03840115376	3
9	405	0.03848315376	1
9	438	0.045488606754	3
9	444	0.045570606754	1
9	492	0.047097078483	3
9	497	0.047179078483	1
9	531	0.049213883778	3
9	537	0.049295883778	1
9	597	0.065928682029	3
9	602	0.066010682029	1
9	615	0.066021015593	3
9	623	0.066055015593	1
9	633	0.067184682029	3
9	638	0.067266682029	1
9	652	0.069360682029	3
9	657	0.069442682029	1
9	666	0.069453015593	3
9	675	0.069487015593	1
9	719	0.080965349157	3
9	727	0.080999349157	1
9	792	0.085928682029	3
9	797	0.086010682029	1
9	808	0.086504682029	3
9	813	0.086586682029	1
9	826	0.086597015593	3
9	835	0.086631015593	1
9	920	0.104321349157	3
9	927	0.104355349157	1
9	973	0.105488606754	3
9	979	0.105570606754	1
9	996	0.106004606754	3
9	1002	0.106086606754	1
9	1030	0.106332940317	3
9	1037	0.106366940317	1
9	1047	0.106556606753	3
9	1052	0.106638606753	1
9	1065	0.108592606753	3
9	1070	0.108674606753	1
9	1084	0.109069078484	3
9	1095	0.109151078484	1
9	1119	0.111125078484	3
9	1126	0.111207078484	1
9	1149	0.113521412047	3
9	1154	0.113603412047	1
9	1189	0.117757412047	3
9	1194	0.117839412047	1
9	1261	0.125756802151	3
9	1268	0.125790802151	1
9	1331	0.129793078484	3
9	1337	0.129875078484	1
9	1438	0.147397682721	3
9	1446	0.147431682721	1
9	1498	0.165488606754	3
9	1508	0.165570606754	1
9	1514	0.165580802151	3
9	1522	0.165614802151	1
9	1552	0.166157273881	3
9	1559	0.166191273881	1
9	1569	0.166481745612	3
9	1575	0.166563745612	1
9	1682	0.174817941009	3
9	1690	0.174851941009	1
9	1761	0.186264606753	3
9	1773	0.186346606753	1
9	1784	0.186640606753	3
9	1789	0.186722606753	1
9	1803	0.187317078484	3
9	1809	0.187399078484	1
9	1820	0.187513078483	3
9	1825	0.187595078483	1
9	1922	0.206404682029	3
9	1927	0.206486682029	1
9	2017	0.225928682029	3
9	2022	0.226010682029	1
9	2033	0.227104682029	3
9	2038	0.227186682029	1
9	2066	0.229780682029	3
9	2071	0.229862682029	1
9	2079	0.229873015593	3
9	2087	0.229907015593	1
9	2127	0.245928682029	3
9	2132	0.246010682029	1
9	2145	0.246864682029	3
9	2150	0.246946682029	1
9	2163	0.248120682029	3
9	2168	0.248202682029	1
9	2267	0.260129820888	3
9	2277	0.260211820888	1
9	2368	0.266130488015	3
9	2373	0.266212488015	1
9	2418	0.269019488707	3
9	2426	0.269053488707	1
9	2518	0.286111293309	3
9	2523	0.286193293309	1
9	2567	0.287439626873	3
9	2575	0.287473626873	1
9	2585	0.288784098604	3
9	2591	0.288866098604	1
9	2669	0.306021015593	3
9	2677	0.306055015593	1
9	2780	0.325928682029	3
9	2785	0.326010682029	1
9	2796	0.326524682029	3
9	2801	0.326606682029	1
9	2813	0.326617015593	3
9	2820	0.326651015593	1
9	2846	0.328416682029	3
9	2851	0.328498682029	1
9	2867	0.334352682029	3
9	2872	0.334434682029	1
9	2947	0.341897487323	3
9	2955	0.341931487323	1
9	2974	0.345928682029	3
9	2979	0.346010682029	1
9	3040	0.365928682029	3
9	3045	0.366010682029	1
9	3058	0.366644682029	3
9	3063	0.366726682029	1
9	3076	0.366737015593	3
9	3084	0.366771015593	1
9	3093	0.367520682029	3
9	3098	0.367602682029	1
9	3106	0.367613015593	3
9	3114	0.367647015593	1
9	3169	0.385928682029	3
9	3174	0.386010682029	1
9	3201	0.386725487323	3
9	3206	0.386807487323	1
9	3343	0.415161487324	3
9	3353	0.415243487324	1
9	3359	0.415253682721	3
9	3366	0.415287682721	1
9	3471	0.425928682029	3
9	3476	0.426010682029	1
9	3509	0.431365487324	3
9	3514	0.431447487324	1
9	3599	0.447124682029	3
9	3604	0.447206682029	1
9	3684	0.45898915376	3
9	3690	0.45907115376	1
9	3702	0.46042515376	3
9	3708	0.46050715376	1
9	3720	0.46230115376	3
9	3726	0.46238315376	1
9	3765	0.465928682029	3
9	3770	0.466010682029	1
9	3799	0.469300682029	3
9	3804	0.469382682029	1
9	3817	0.469393015593	3
9	3826	0.469427015593	1
9	4006	0.505928682029	3
9	4011	0.506010682029	1
9	4025	0.507084682029	3
9	4030	0.507166682029	1
9	4043	0.507177015593	3
9	4052	0.507211015593	1
9	4066	0.51764115376	3
9	4073	0.51772315376	1
9	4079	0.517733349157	3
9	4087	0.517767349157	1
9	4120	0.525928682029	3
9	4125	0.526010682029	1
9	4138	0.526844682029	3
9	4143	0.526926682029	1
9	4158	0.528520682029	3
9	4163	0.528602682029	1
9	4260	0.543229820888	3
9	4266	0.543311820888	1
9	4316	0.545928682029	3
9	4321	0.546010682029	1
9	4391	0.550334488016	3
9	4402	0.550416488016	1
9	4408	0.550426683413	3
9	4416	0.550460683413	1
9	4494	0.552999822272	3
9	4500	0.553081822272	1
9	4613	0.565928682029	3
9	4618	0.566010682029	1
9	4662	0.569437349157	3
9	4670	0.569471349157	1
9	4751	0.572690488016	3
9	4756	0.572772488016	1
9	4767	0.573646488016	3
9	4773	0.573728488016	1
9	4787	0.574302488016	3
9	4798	0.574384488016	1
9	4804	0.574394683413	3
9	4813	0.574428683413	1
9	4875	0.585928682029	3
9	4880	0.586010682029	1
9	4891	0.586204682029	3
9	4896	0.586286682029	1
9	4907	0.588700682029	3
9	4912	0.588782682029	1
9	4926	0.592096682029	3
9	4931	0.592178682029	1
9	4944	0.592189015593	3
9	4952	0.592223015593	1
9	4973	0.593445349157	3
9	4980	0.593479349157	1
9	5006	0.593942016285	3
9	5014	0.593976016285	1
9	5052	0.595801820887	3
9	5057	0.595883820887	1
9	5084	0.597230488015	3
9	5091	0.597264488015	1
9	5101	0.597894292618	3
9	5107	0.597976292618	1
9	5113	0.597986488015	3
9	5121	0.598020488015	1
9	5130	0.598390626181	3
9	5135	0.598472626181	1
9	5289	0.606784682029	3
9	5294	0.606866682029	1
9	5405	0.617106016285	3
9	5412	0.617140016285	1
9	5422	0.619209820888	3
9	5428	0.619291820888	1
9	5496	0.625928682029	3
9	5502	0.626010682029	1
9	5516	0.626644682029	3
9	5521	0.626726682029	1
9	5534	0.628120682029	3
9	5539	0.628202682029	1
9	5570	0.631876682029	3
9	5575	0.631958682029	1
9	5744	0.65648915376	3
9	5754	0.65657115376	1
9	5760	0.656581349157	3
9	5768	0.656615349157	1
9	5874	0.661862683413	3
9	5882	0.661896683413	1
9	5904	0.662098683413	3
9	5912	0.662132683413	1
9	5950	0.664890683413	3
9	5957	0.664924683413	1
9	5976	0.665928682029	3
9	5981	0.666010682029	1
9	6026	0.669373015593	3
9	6033	0.669407015593	1
9	6152	0.686021015593	3
9	6160	0.686055015593	1
9	6202	0.689853682721	3
9	6210	0.689887682721	1
9	6232	0.691249682721	3
9	6240	0.691283682721	1
9	6328	0.725928682029	3
9	6333	0.726010682029	1
9	6346	0.726344682029	3
9	6351	0.726426682029	1
9	6364	0.726437015593	3
9	6373	0.726471015593	1
9	6396	0.72929715376	3
9	6402	0.72937915376	1
9	6444	0.731021349157	3
9	6452	0.731055349157	1
9	6473	0.735257349157	3
9	6480	0.735291349157	1
9	6523	0.745928682029	3
9	6528	0.746010682029	1
9	6555	0.746837015593	3
9	6561	0.746871015593	1
9	6584	0.748720682029	3
9	6589	0.748802682029	1
9	6614	0.749516682029	3
9	6619	0.749598682029	1
9	6628	0.749609015593	3
9	6637	0.749643015593	1
9	6685	0.760601349157	3
9	6692	0.760635349157	1
9	6779	0.781337487324	3
9	6785	0.781419487324	1
9	6820	0.786565487323	3
9	6825	0.786647487323	1
9	6860	0.802761959054	3
9	6866	0.802843959054	1
9	6905	0.804294626182	3
9	6911	0.804376626182	1
9	6932	0.805928682029	3
9	6937	0.806010682029	1
9	6949	0.806021015593	3
9	6956	0.806055015593	1
9	6966	0.806384682029	3
9	6971	0.806466682029	1
9	6984	0.807100682029	3
9	6989	0.807182682029	1
9	7018	0.807529349157	3
9	7024	0.807563349157	1
9	7060	0.812065349157	3
9	7067	0.812099349157	1
9	7078	0.813589153759	3
9	7084	0.813671153759	1
9	7149	0.824745153759	3
9	7154	0.824827153759	1
9	7163	0.824837487323	3
9	7172	0.824871487323	1
9	7206	0.826357625489	3
9	7211	0.826439625489	1
9	7284	0.828826430783	3
9	7289	0.828908430783	1
9	7375	0.84047409722	3
9	7380	0.84055609722	1
9	7496	0.865928682029	3
9	7501	0.866010682029	1
9	7592	0.88232115376	3
9	7598	0.88240315376	1
9	7635	0.882790016285	3
9	7641	0.882824016285	1
9	7721	0.885928682029	3
9	7726	0.886010682029	1
9	7742	0.886764682029	3
9	7747	0.886846682029	1
9	7759	0.88768515376	3
9	7765	0.88776715376	1
9	7825	0.889913487323	3
9	7830	0.889995487323	1
9	7850	0.894049487323	3
9	7855	0.894131487323	1
9	7885	0.894245487323	3
9	7890	0.894327487323	1
9	7898	0.894337820887	3
9	7905	0.894371820887	1
9	7921	0.899641487323	3
9	7926	0.899723487323	1
9	7934	0.899733820887	3
9	7941	0.899767820887	1
9	7952	0.904097487323	3
9	7959	0.904179487323	1
9	7967	0.904189820887	3
9	7975	0.904223820887	1
9	8037	0.906410959745	3
9	8042	0.906492959745	1
9	8055	0.906726959745	3
9	8060	0.906808959745	1
9	8090	0.907423431476	3
9	8096	0.907505431476	1
9	8154	0.910747626873	3
9	8162	0.910781626873	1
9	8272	0.945928682029	3
9	8277	0.946010682029	1
9	8305	0.947084682029	3
9	8310	0.947166682029	1
9	8323	0.949200682029	3
9	8328	0.949282682029	1
9	8368	0.95299315376	3
9	8374	0.95307515376	1
9	8440	0.96411715376	3
9	8451	0.96419915376	1
9	8484	0.965928682029	3
9	8489	0.966010682029	1
9	8580	0.981985682721	3
9	8587	0.982019682721	1
9	8613	0.982562349849	3
9	8621	0.982596349849	1
9	8643	0.983638349849	3
9	8650	0.983672349849	1
9	8660	0.984242154452	3
9	8667	0.984324154452	1
9	8707	0.985890349849	3
9	8714	0.985924349849	1
9	8745	0.986790626182	3
9	8751	0.986872626182	1
9	8762	0.987046626181	3
9	8767	0.987128626181	1
9	8811	0.988194821579	3
9	8819	0.988228821579	1
9	8828	0.989258959745	3
9	8833	0.989340959745	1
9	8865	0.994014959745	3
9	8870	0.994096959745	1
9	8904	0.997450959745	3
9	8910	0.997532959745	1
9	8936	0.997839626873	3
9	8944	0.997873626873	1
9	9019	1.000864294001	3
9	9026	1.000898294001	1
9	9155	1.018448765731	3
9	9160	1.018530765731	1
10	0	0	1
10	13	0.005488135023	0
10	19	0.005570135023	1
10	37	0.005928682029	3
10	42	0.006010682029	1
10	55	0.006124682029	3
10	60	0.006206682029	1
10	69	0.006440682029	0
10	75	0.006522682029	1
10	97	0.008216682029	0
10	103	0.008298682029	1
10	134	0.009033153759	3
10	139	0.009115153759	1
10	162	0.012269153759	0
10	168	0.012351153759	1
10	176	0.013205153759	0
10	182	0.013287153759	1
10	192	0.014221153759	0
10	198	0.014303153759	1
10	234	0.025928682029	3
10	239	0.026010682029	1
10	252	0.026384682029	3
10	257	0.026466682029	1
10	286	0.028880682029	3
10	291	0.028962682029	1
10	326	0.033676682029	0
10	332	0.033758682029	1
10	342	0.034192682029	0
10	348	0.034274682029	1
10	358	0.035048682029	0
10	364	0.035130682029	1
10	375	0.037764682029	0
10	381	0.037846682029	1
10	391	0.038400682029	0
10	397	0.038482682029	1
10	412	0.038493349157	3
10	419	0.038527349157	1
10	434	0.045488135023	0
10	440	0.045570135023	1
10	461	0.046104606753	3
10	466	0.046186606753	1
10	473	0.046560606753	0
10	479	0.046642606753	1
10	493	0.047097078483	3
10	498	0.047179078483	1
10	511	0.047189412047	3
10	520	0.047223412047	1
10	527	0.049213412047	0
10	533	0.049295412047	1
10	545	0.050829412047	0
10	551	0.050911412047	1
10	566	0.057345412047	0
10	572	0.057427412047	1
10	598	0.065928682029	3
10	603	0.066010682029	1
10	616	0.066021015593	3
10	624	0.066055015593	1
10	634	0.067184682029	3
10	639	0.067266682029	1
10	653	0.069360682029	3
10	658	0.069442682029	1
10	683	0.078476682029	0
10	689	0.078558682029	1
10	699	0.080872682029	0
10	705	0.080954682029	1
10	733	0.081108682029	0
10	739	0.081190682029	1
10	747	0.082504682029	0
10	753	0.082586682029	1
10	763	0.084360682029	0
10	769	0.084442682029	1
10	809	0.086504682029	3
10	814	0.086586682029	1
10	840	0.086940682029	0
10	846	0.087022682029	1
10	856	0.087656682029	0
10	862	0.087738682029	1
10	873	0.088712682029	0
10	879	0.088794682029	1
10	900	0.104228682029	0
10	906	0.104310682029	1
10	921	0.104321349157	3
10	928	0.104355349157	1
10	933	0.104425349157	0
10	939	0.104507349157	1
10	953	0.104518016285	3
10	960	0.104552016285	1
10	969	0.105488135023	0
10	975	0.105570135023	1
10	992	0.106004135023	0
10	998	0.106086135023	1
10	1014	0.106240606753	3
10	1019	0.106322606753	1
10	1031	0.106332940317	3
10	1038	0.106366940317	1
10	1048	0.106556606753	3
10	1053	0.106638606753	1
10	1066	0.108592606753	3
10	1071	0.108674606753	1
10	1080	0.109068606753	0
10	1086	0.109150606753	1
10	1115	0.111124606753	0
10	1121	0.111206606753	1
10	1133	0.111217273881	3
10	1142	0.111251273881	1
10	1150	0.113521412047	3
10	1155	0.113603412047	1
10	1164	0.113613745611	3
10	1172	0.113647745611	1
10	1203	0.117849745611	3
10	1211	0.117883745611	1
10	1227	0.125488135023	0
10	1233	0.125570135023	1
10	1241	0.125664135023	0
10	1247	0.125746135023	1
10	1283	0.126380606753	3
10	1288	0.126462606753	1
10	1313	0.128216606753	0
10	1319	0.128298606753	1
10	1327	0.129792606753	0
10	1333	0.129874606753	1
10	1356	0.133988606753	0
10	1362	0.134070606753	1
10	1393	0.145928682029	3
10	1398	0.146010682029	1
10	1410	0.146021015593	3
10	1418	0.146055015593	1
10	1422	0.147305015593	0
10	1428	0.147387015593	1
10	1439	0.147397682721	3
10	1447	0.147431682721	1
10	1452	0.147821682721	0
10	1458	0.147903682721	1
10	1472	0.147914349849	3
10	1479	0.147948349849	1
10	1494	0.165488135023	0
10	1500	0.165570135023	1
10	1553	0.166157273881	3
10	1560	0.166191273881	1
10	1565	0.166481273881	0
10	1571	0.166563273881	1
10	1594	0.168477273881	0
10	1600	0.168559273881	1
10	1608	0.170133273881	0
10	1614	0.170215273881	1
10	1637	0.174029273881	0
10	1643	0.174111273881	1
10	1666	0.174725273881	0
10	1672	0.174807273881	1
10	1703	0.179821273881	0
10	1709	0.179903273881	1
10	1730	0.185488135023	0
10	1736	0.185570135023	1
10	1751	0.186204135023	0
10	1764	0.186286135023	1
10	1785	0.186640606753	3
10	1790	0.186722606753	1
10	1799	0.187316606753	0
10	1805	0.187398606753	1
10	1821	0.187513078483	3
10	1826	0.187595078483	1
10	1851	0.188849078483	0
10	1857	0.188931078483	1
10	1868	0.192825078483	0
10	1874	0.192907078483	1
10	1907	0.205928682029	3
10	1912	0.206010682029	1
10	1923	0.206404682029	3
10	1928	0.206486682029	1
10	1953	0.210460682029	0
10	1959	0.210542682029	1
10	1973	0.224336682029	0
10	1979	0.224418682029	1
10	2051	0.227197015593	3
10	2058	0.227231015593	1
10	2080	0.229873015593	3
10	2088	0.229907015593	1
10	2100	0.241377015593	0
10	2106	0.241459015593	1
10	2128	0.245928682029	3
10	2133	0.246010682029	1
10	2146	0.246864682029	3
10	2151	0.246946682029	1
10	2164	0.248120682029	3
10	2169	0.248202682029	1
10	2182	0.248213015593	3
10	2190	0.248247015593	1
10	2199	0.248716682029	3
10	2204	0.248798682029	1
10	2230	0.259412682029	0
10	2236	0.259494682029	1
10	2251	0.259505349157	3
10	2259	0.259539349157	1
10	2263	0.260129349157	0
10	2269	0.260211349157	1
10	2284	0.260222016285	3
10	2291	0.260256016285	1
10	2295	0.260826016285	0
10	2301	0.260908016285	1
10	2309	0.261062016285	0
10	2315	0.261144016285	1
10	2325	0.261718016285	0
10	2331	0.261800016285	1
10	2344	0.265514016285	0
10	2350	0.265596016285	1
10	2386	0.266222821579	3
10	2394	0.266256821579	1
10	2398	0.268926821579	0
10	2404	0.269008821579	1
10	2439	0.274962821579	0
10	2445	0.275044821579	1
10	2475	0.285438821579	0
10	2486	0.285520821579	1
10	2494	0.285814821579	0
10	2500	0.285896821579	1
10	2519	0.286111293309	3
10	2524	0.286193293309	1
10	2533	0.286347293309	0
10	2539	0.286429293309	1
10	2551	0.287347293309	3
10	2556	0.287429293309	1
10	2568	0.287439626873	3
10	2576	0.287473626873	1
10	2581	0.288783626873	0
10	2587	0.288865626873	1
10	2599	0.291999626873	0
10	2605	0.292081626873	1
10	2617	0.296075626873	0
10	2623	0.296157626873	1
10	2653	0.305928682029	3
10	2658	0.306010682029	1
10	2670	0.306021015593	3
10	2678	0.306055015593	1
10	2684	0.310585015593	0
10	2690	0.310667015593	1
10	2700	0.313121015593	0
10	2706	0.313203015593	1
10	2718	0.318617015593	0
10	2724	0.318699015593	1
10	2751	0.323953015593	0
10	2757	0.324035015593	1
10	2814	0.326617015593	3
10	2821	0.326651015593	1
10	2831	0.327500682029	3
10	2836	0.327582682029	1
10	2847	0.328416682029	3
10	2852	0.328498682029	1
10	2883	0.337152682029	0
10	2889	0.337234682029	1
10	2901	0.339868682029	0
10	2907	0.339950682029	1
10	2917	0.341704682029	0
10	2923	0.341786682029	1
10	2933	0.341805153759	3
10	2940	0.341887153759	1
10	3008	0.353441153759	0
10	3014	0.353523153759	1
10	3041	0.365928682029	3
10	3046	0.366010682029	1
10	3059	0.366644682029	3
10	3064	0.366726682029	1
10	3107	0.367613015593	3
10	3115	0.367647015593	1
10	3120	0.369897015593	0
10	3126	0.369979015593	1
10	3142	0.385373015593	0
10	3148	0.385455015593	1
10	3182	0.386149015593	0
10	3188	0.386231015593	1
10	3230	0.390085015593	0
10	3236	0.390167015593	1
10	3246	0.391561015593	0
10	3252	0.391643015593	1
10	3266	0.400677015593	0
10	3272	0.400759015593	1
10	3313	0.406021015593	3
10	3320	0.406055015593	1
10	3324	0.410205015593	0
10	3330	0.410287015593	1
10	3339	0.415161015593	0
10	3345	0.415243015593	1
10	3360	0.415253682721	3
10	3367	0.415287682721	1
10	3372	0.415457682721	0
10	3378	0.415539682721	1
10	3386	0.415733682721	0
10	3392	0.415815682721	1
10	3404	0.418189682721	0
10	3410	0.418271682721	1
10	3438	0.422925682721	0
10	3444	0.423007682721	1
10	3472	0.425928682029	3
10	3477	0.426010682029	1
10	3490	0.426021015593	3
10	3499	0.426055015593	1
10	3505	0.431365015593	0
10	3511	0.431447015593	1
10	3525	0.442281015593	0
10	3531	0.442363015593	1
10	3568	0.445928682029	3
10	3573	0.446010682029	1
10	3600	0.447124682029	3
10	3605	0.447206682029	1
10	3618	0.447520682029	3
10	3623	0.447602682029	1
10	3636	0.452736682029	3
10	3641	0.452818682029	1
10	3664	0.458592682029	0
10	3670	0.458674682029	1
10	3680	0.458988682029	0
10	3686	0.459070682029	1
10	3698	0.460424682029	0
10	3704	0.460506682029	1
10	3716	0.462300682029	0
10	3722	0.462382682029	1
10	3736	0.464816682029	0
10	3742	0.464898682029	1
10	3782	0.466604682029	3
10	3787	0.466686682029	1
10	3800	0.469300682029	3
10	3805	0.469382682029	1
10	3833	0.474796682029	0
10	3839	0.474878682029	1
10	3902	0.486021015593	3
10	3909	0.486055015593	1
10	3913	0.491445015593	0
10	3919	0.491527015593	1
10	3942	0.495941015593	0
10	3949	0.496023015593	1
10	3960	0.497677015593	0
10	3966	0.497759015593	1
10	4007	0.505928682029	3
10	4012	0.506010682029	1
10	4026	0.507084682029	3
10	4031	0.507166682029	1
10	4062	0.517640682029	0
10	4068	0.517722682029	1
10	4093	0.525276682029	0
10	4099	0.525358682029	1
10	4121	0.525928682029	3
10	4126	0.526010682029	1
10	4139	0.526844682029	3
10	4144	0.526926682029	1
10	4159	0.528520682029	3
10	4164	0.528602682029	1
10	4194	0.541216682029	0
10	4200	0.541298682029	1
10	4211	0.541309349157	3
10	4219	0.541343349157	1
10	4223	0.541973349157	0
[...]
85	9522	1.037429377011	14
85	9553	1.038166044139	14
85	9649	1.046310182305	14
85	9676	1.046890044139	14
85	9716	1.063086044139	14
85	9774	1.067090682029	14
85	9803	1.068066682029	14
85	9832	1.068862682029	14
85	9868	1.077139349157	14
85	9917	1.078051349157	14
85	10036	1.086370682029	14
85	10173	1.106350682029	14
85	10220	1.107047015593	14
85	10281	1.111315820887	14
85	10331	1.115108292617	14
85	10433	1.126830682029	14
85	10483	1.142827015593	14
85	10572	1.146054682029	14
85	10605	1.147231015593	14
85	10655	1.149083682721	14
85	10728	1.159911682721	14
85	10776	1.160404349849	14
85	10811	1.161101016977	14
85	10845	1.161297684105	14
85	10906	1.166054682029	14
85	10939	1.166991349157	14
85	10990	1.185614468587	14
85	11063	1.186902606753	14
85	11091	1.187338606753	14
85	11137	1.191351412047	14
85	11188	1.200227412047	14
85	11235	1.204760079175	14
85	11316	1.207426682029	14
85	11356	1.217923349157	14
85	11390	1.218639349157	14
85	11436	1.221451349157	14
85	11493	1.226054682029	14
85	11522	1.226330682029	14
85	11590	1.230259153759	14
85	11619	1.232135820887	14
85	11691	1.246054682029	14
85	11727	1.263611015593	14
85	11773	1.266054682029	14
85	11836	1.286054682029	14
85	11866	1.287547015593	14
85	11950	1.306310682029	14
85	12000	1.324983015593	14
85	12059	1.326175820887	14
85	12090	1.326655682721	14
85	12119	1.327991682721	14
85	12150	1.328208349849	14
85	12195	1.331080349849	14
85	12251	1.340392349849	14
85	12310	1.346368349849	14
85	12346	1.346964821579	14
85	12375	1.348901488707	14
85	12487	1.366054682029	14
85	12564	1.370239153759	14
85	12623	1.383831487323	14
85	12664	1.392127959053	14
85	12728	1.394256292617	14
85	12863	1.409692959745	14
85	12897	1.412889431475	14
85	12947	1.414741903205	14
85	12978	1.415617903205	14
85	13049	1.417086374935	14
85	13099	1.418639042063	14
85	13134	1.418815709191	14
85	13250	1.426054682029	14
85	13312	1.437187349157	14
85	13375	1.446730682029	14
85	13426	1.447463349157	14
85	13453	1.448359349157	14
85	13482	1.448595349157	14
85	13599	1.466054682029	14
85	13635	1.479151349157	14
85	13724	1.485956016285	14
85	13760	1.486312488015	14
85	13829	1.488681155143	14
85	14033	1.516775015593	14
85	14083	1.517687682721	14
85	14119	1.524303820887	14
85	14154	1.525614468587	14
85	14208	1.527026468587	14
85	14252	1.531858468587	14
85	14328	1.542586606753	14
85	14371	1.546054682029	14
85	14405	1.560043273881	14
85	14453	1.561135941009	14
85	14508	1.566054682029	14
85	14572	1.568566682029	14
85	14660	1.586054682029	14
85	14707	1.587811015593	14
85	14738	1.588207015593	14
85	14769	1.590923015593	14
85	14821	1.600295015593	14
85	14867	1.606054682029	14
85	14979	1.628506682029	14
85	15013	1.632363015593	14
85	15055	1.634035820887	14
85	15122	1.639584488015	14
85	15259	1.656504959745	14
85	15287	1.656740959745	14
85	15330	1.659541431475	14
85	15413	1.663529903205	14
85	15439	1.664226236769	14
85	15530	1.668723015593	14
85	15586	1.673899153759	14
85	15652	1.686054682029	14
85	15681	1.686890682029	14
85	15710	1.688186682029	14
85	15766	1.702199349157	14
85	15810	1.706054682029	14
85	15870	1.710442682029	14
85	15900	1.715087015593	14
85	15965	1.718695820887	14
85	15998	1.719115682721	14
85	16031	1.719852349849	14
85	16108	1.724376488015	14
85	16235	1.729452821579	14
85	16268	1.729629488707	14
85	16353	1.735173488707	14
85	16390	1.736789960437	14
85	16538	1.757558682029	14
85	16568	1.759615015593	14
85	16650	1.764879015593	14
85	16690	1.766054682029	14
85	16718	1.766355015593	14
85	16783	1.770223153759	14
86	9317	1.021236612184	14
86	9389	1.026054917894	14
86	9652	1.04631041817	14
86	9835	1.068862917894	14
86	10039	1.086370917894	14
86	10334	1.115108528482	14
86	10436	1.126830917894	14
86	10575	1.146054917894	14
86	10909	1.166054917894	14
86	11191	1.200227647912	14
86	11319	1.207426917894	14
86	11593	1.230259389624	14
86	11694	1.246054917894	14
86	11776	1.266054917894	14
86	11839	1.286054917894	14
86	11953	1.306310917894	14
86	12062	1.326176056752	14
86	12349	1.346965057444	14
86	12900	1.41288966734	14
86	12981	1.41561813907	14
86	13052	1.4170866108	14
86	13253	1.426054917894	14
86	13378	1.446730917894	14
86	13602	1.466054917894	14
86	13763	1.48631272388	14
86	14331	1.542586842618	14
86	14374	1.546054917894	14
86	14575	1.568566917894	14
86	14663	1.586054917894	14
86	14870	1.606054917894	14
86	15333	1.65954166734	14
86	15416	1.66353013907	14
86	15589	1.673899389624	14
86	15713	1.688186917894	14
86	16393	1.736790196302	14
86	16541	1.757558917894	14
86	16786	1.770223389624	14
87	9317	1.021236612184	14
87	9389	1.026054917894	14
87	9652	1.04631041817	14
87	9835	1.068862917894	14
87	10039	1.086370917894	14
87	10334	1.115108528482	14
87	10436	1.126830917894	14
87	10575	1.146054917894	14
87	10909	1.166054917894	14
87	11191	1.200227647912	14
87	11319	1.207426917894	14
87	11593	1.230259389624	14
87	11694	1.246054917894	14
87	11776	1.266054917894	14
87	11839	1.286054917894	14
87	11953	1.306310917894	14
87	12062	1.326176056752	14
87	12349	1.346965057444	14
87	12900	1.41288966734	14
87	12981	1.41561813907	14
87	13052	1.4170866108	14
87	13253	1.426054917894	14
87	13378	1.446730917894	14
87	13602	1.466054917894	14
87	13763	1.48631272388	14
87	14331	1.542586842618	14
87	14374	1.546054917894	14
87	14575	1.568566917894	14
87	14663	1.586054917894	14
87	14870	1.606054917894	14
87	15333	1.65954166734	14
87	15416	1.66353013907	14
87	15589	1.673899389624	14
87	15713	1.688186917894	14
87	16393	1.736790196302	14
87	16541	1.757558917894	14
87	16786	1.770223389624	14
88	9317	1.021236612184	14
88	9389	1.026054917894	14
88	9652	1.04631041817	14
88	9835	1.068862917894	14
88	10039	1.086370917894	14
88	10334	1.115108528482	14
88	10436	1.126830917894	14
88	10575	1.146054917894	14
88	10909	1.166054917894	14
88	11191	1.200227647912	14
88	11319	1.207426917894	14
88	11593	1.230259389624	14
88	11694	1.246054917894	14
88	11776	1.266054917894	14
88	11839	1.286054917894	14
88	11953	1.306310917894	14
88	12062	1.326176056752	14
88	12349	1.346965057444	14
88	12900	1.41288966734	14
88	12981	1.41561813907	14
88	13052	1.4170866108	14
88	13253	1.426054917894	14
88	13378	1.446730917894	14
88	13602	1.466054917894	14
88	13763	1.48631272388	14
88	14331	1.542586842618	14
88	14374	1.546054917894	14
88	14575	1.568566917894	14
88	14663	1.586054917894	14
88	14870	1.606054917894	14
88	15333	1.65954166734	14
88	15416	1.66353013907	14
88	15589	1.673899389624	14
88	15713	1.688186917894	14
88	16393	1.736790196302	14
88	16541	1.757558917894	14
88	16786	1.770223389624	14
89	9317	1.021236612184	0.002788082318
89	9389	1.026054917894	0.00012647173
89	9652	1.04631041817	0.00012647173
89	9835	1.068862917894	0.00293447173
89	10039	1.086370917894	0.00044247173
89	10334	1.115108528482	0.009180082318
89	10436	1.126830917894	0.00090247173
89	10575	1.146054917894	0.00012647173
89	10909	1.166054917894	0.00012647173
89	11191	1.200227647912	0.014047277024
89	11319	1.207426917894	0.00149847173
89	11593	1.230259389624	0.00433094346
89	11694	1.246054917894	0.00012647173
89	11776	1.266054917894	0.00012647173
89	11839	1.286054917894	0.00012647173
89	11953	1.306310917894	0.00038247173
89	12062	1.326176056752	0.00012647173
89	12349	1.346965057444	0.00103661128
89	12900	1.41288966734	0.046961221176
89	12981	1.41561813907	0.023616415882
89	13052	1.4170866108	0.00364694346
89	13253	1.426054917894	0.00012647173
89	13378	1.446730917894	0.00080247173
89	13602	1.466054917894	0.00012647173
89	13763	1.48631272388	0.00012647173
89	14299	1.541981370888	0.036052924724
89	14331	1.542586842618	0.00074247173
89	14374	1.546054917894	0.00012647173
89	14575	1.568566917894	0.00263847173
89	14663	1.586054917894	0.00012647173
89	14870	1.606054917894	0.00012647173
89	15333	1.65954166734	0.033613221176
89	15416	1.66353013907	0.00411494346
89	15589	1.673899389624	0.00797094346
89	15713	1.688186917894	0.00225847173
89	16143	1.72626325215	0.020334805986
89	16393	1.736790196302	0.010663944152
89	16541	1.757558917894	0.01163047173
89	16786	1.770223389624	0.00429494346
90	9412	1.030720709883	154
90	9512	1.037385377011	154
90	9667	1.046846044139	154
90	9706	1.063042044139	154
90	9793	1.068022682029	154
90	9822	1.068818682029	154
90	9857	1.077095349157	154
90	10271	1.111271820887	154
90	10319	1.115064292617	154
90	10718	1.159867682721	154
90	11083	1.187294606753	154
90	11127	1.191307412047	154
90	11180	1.200183412047	154
90	11225	1.204716079175	154
90	11345	1.217879349157	154
90	11425	1.221407349157	154
90	11512	1.226286682029	154
90	11580	1.230215153759	154
90	11610	1.232091820887	154
90	11856	1.287503015593	154
90	11990	1.324939015593	154
90	12109	1.327947682721	154
90	12185	1.331036349849	154
90	12241	1.340348349849	154
90	12299	1.346324349849	154
90	12365	1.348857488707	154
90	12554	1.370195153759	154
90	12654	1.392083959053	154
90	12885	1.412845431475	154
90	12966	1.415573903205	154
90	13444	1.448315349157	154
90	13472	1.448551349157	154
90	14198	1.526982468587	154
90	14243	1.531814468587	154
90	14395	1.559999273881	154
90	14562	1.568522682029	154
90	14727	1.588163015593	154
90	14758	1.590879015593	154
90	14812	1.600251015593	154
90	15047	1.633991820887	154
90	15277	1.656696959745	154
90	15320	1.659497431475	154
90	15430	1.664182236769	154
90	15520	1.668679015593	154
90	15671	1.686846682029	154
90	15700	1.688142682029	154
90	15860	1.710398682029	154
90	15890	1.715043015593	154
90	15955	1.718651820887	154
90	16100	1.724332488015	154
90	16225	1.729408821579	154
90	16342	1.735129488707	154
90	16557	1.759571015593	154
90	16708	1.766311015593	154
90	16771	1.770179153759	154
91	9412	1.030720709883	154
91	9512	1.037385377011	154
91	9667	1.046846044139	154
91	9706	1.063042044139	154
91	9793	1.068022682029	154
91	9822	1.068818682029	154
91	9857	1.077095349157	154
91	10271	1.111271820887	154
91	10319	1.115064292617	154
91	10718	1.159867682721	154
91	11083	1.187294606753	154
91	11127	1.191307412047	154
91	11180	1.200183412047	154
91	11225	1.204716079175	154
91	11345	1.217879349157	154
91	11425	1.221407349157	154
91	11512	1.226286682029	154
91	11580	1.230215153759	154
91	11610	1.232091820887	154
91	11856	1.287503015593	154
91	11990	1.324939015593	154
91	12109	1.327947682721	154
91	12185	1.331036349849	154
91	12241	1.340348349849	154
91	12299	1.346324349849	154
91	12365	1.348857488707	154
91	12554	1.370195153759	154
91	12654	1.392083959053	154
91	12885	1.412845431475	154
91	12966	1.415573903205	154
91	13444	1.448315349157	154
91	13472	1.448551349157	154
91	14198	1.526982468587	154
91	14243	1.531814468587	154
91	14395	1.559999273881	154
91	14562	1.568522682029	154
91	14727	1.588163015593	154
91	14758	1.590879015593	154
91	14812	1.600251015593	154
91	15047	1.633991820887	154
91	15277	1.656696959745	154
91	15320	1.659497431475	154
91	15430	1.664182236769	154
91	15520	1.668679015593	154
91	15671	1.686846682029	154
91	15700	1.688142682029	154
91	15860	1.710398682029	154
91	15890	1.715043015593	154
91	15955	1.718651820887	154
91	16100	1.724332488015	154
91	16225	1.729408821579	154
91	16342	1.735129488707	154
91	16557	1.759571015593	154
91	16708	1.766311015593	154
91	16771	1.770179153759	154
92	9412	1.030720709883	154
92	9512	1.037385377011	154
92	9667	1.046846044139	154
92	9706	1.063042044139	154
92	9793	1.068022682029	154
92	9822	1.068818682029	154
92	9857	1.077095349157	154
92	10271	1.111271820887	154
92	10319	1.115064292617	154
92	10718	1.159867682721	154
92	11083	1.187294606753	154
92	11127	1.191307412047	154
92	11180	1.200183412047	154
92	11225	1.204716079175	154
92	11345	1.217879349157	154
92	11425	1.221407349157	154
92	11512	1.226286682029	154
92	11580	1.230215153759	154
92	11610	1.232091820887	154
92	11856	1.287503015593	154
92	11990	1.324939015593	154
92	12109	1.327947682721	154
92	12185	1.331036349849	154
92	12241	1.340348349849	154
92	12299	1.346324349849	154
92	12365	1.348857488707	154
92	12554	1.370195153759	154
92	12654	1.392083959053	154
92	12885	1.412845431475	154
92	12966	1.415573903205	154
92	13444	1.448315349157	154
92	13472	1.448551349157	154
92	14198	1.526982468587	154
92	14243	1.531814468587	154
92	14395	1.559999273881	154
92	14562	1.568522682029	154
92	14727	1.588163015593	154
92	14758	1.590879015593	154
92	14812	1.600251015593	154
92	15047	1.633991820887	154
92	15277	1.656696959745	154
92	15320	1.659497431475	154
92	15430	1.664182236769	154
92	15520	1.668679015593	154
92	15671	1.686846682029	154
92	15700	1.688142682029	154
92	15860	1.710398682029	154
92	15890	1.715043015593	154
92	15955	1.718651820887	154
92	16100	1.724332488015	154
92	16225	1.729408821579	154
92	16342	1.735129488707	154
92	16557	1.759571015593	154
92	16708	1.766311015593	154
92	16771	1.770179153759	154
93	9412	1.030720709883	154
93	9512	1.037385377011	154
93	9667	1.046846044139	154
93	9706	1.063042044139	154
93	9793	1.068022682029	154
93	9822	1.068818682029	154
93	9857	1.077095349157	154
93	10271	1.111271820887	154
93	10319	1.115064292617	154
93	10718	1.159867682721	154
93	11083	1.187294606753	154
93	11127	1.191307412047	154
93	11180	1.200183412047	154
93	11225	1.204716079175	154
93	11345	1.217879349157	154
93	11425	1.221407349157	154
93	11512	1.226286682029	154
93	11580	1.230215153759	154
93	11610	1.232091820887	154
93	11856	1.287503015593	154
93	11990	1.324939015593	154
93	12109	1.327947682721	154
93	12185	1.331036349849	154
93	12241	1.340348349849	154
93	12299	1.346324349849	154
93	12365	1.348857488707	154
93	12554	1.370195153759	154
93	12654	1.392083959053	154
93	12885	1.412845431475	154
93	12966	1.415573903205	154
93	13444	1.448315349157	154
93	13472	1.448551349157	154
93	14198	1.526982468587	154
93	14243	1.531814468587	154
93	14395	1.559999273881	154
93	14562	1.568522682029	154
93	14727	1.588163015593	154
93	14758	1.590879015593	154
93	14812	1.600251015593	154
93	15047	1.633991820887	154
93	15277	1.656696959745	154
93	15320	1.659497431475	154
93	15430	1.664182236769	154
93	15520	1.668679015593	154
93	15671	1.686846682029	154
93	15700	1.688142682029	154
93	15860	1.710398682029	154
93	15890	1.715043015593	154
93	15955	1.718651820887	154
93	16100	1.724332488015	154
93	16225	1.729408821579	154
93	16342	1.735129488707	154
93	16557	1.759571015593	154
93	16708	1.766311015593	154
93	16771	1.770179153759	154
94	9224	1.019327904589	0.020984277716
94	9428	1.030765043447	0.029456749446
94	9528	1.037429710575	0.017531805986
94	9875	1.077150015593	0.046134972146
94	9922	1.078051682721	0.040011972146
94	10106	1.104789682029	0.027300666436
94	10379	1.125071292617	0.046449609896
94	10489	1.142827349157	0.037598667128
94	10611	1.147231349157	0.009906667128
94	10733	1.159912016285	0.016634667128
94	10782	1.160404683413	0.012543334256
94	10818	1.161101350541	0.000999334256
94	10851	1.161298017669	0.000323334256
94	10946	1.166991682721	0.001503547698
94	11363	1.217934015593	0.03244588057
94	11652	1.245222487323	0.02742547173
94	12006	1.324983349157	0.098202667128
94	12125	1.327992016285	0.064507334256
94	12380	1.348901822271	0.023368473114
94	12685	1.392614959053	0.064532942768
94	12734	1.394256626181	0.04474480391
94	13073	1.418293708499	0.025199749446
94	13106	1.418639375627	0.024112749446
94	13141	1.418816042755	0.000303334256
94	13397	1.447118015593	0.028428639966
94	13560	1.464130015593	0.045023972838
94	13641	1.479151682721	0.031814667128
94	13731	1.485956349849	0.006931334256
94	13990	1.516089682029	0.036487999308
94	14039	1.516775349157	0.030292527578
94	14088	1.517688016285	0.001039334256
94	14410	1.560043607445	0.034555472422
94	14681	1.587545682029	0.027628741712
94	14907	1.621798015593	0.055137333564
94	15018	1.632363349157	0.044678667128
94	15234	1.655879626181	0.023642944152
94	15554	1.669649682029	0.036876332872
94	15907	1.715087349157	0.058708722976
94	16004	1.719116016285	0.041867334256
94	16241	1.729453155143	0.014075805986
94	16576	1.759625682029	0.039899665744
95	9875	1.077150015593	154
95	10106	1.104789682029	154
95	10379	1.125071292617	154
95	11363	1.217934015593	154
95	11652	1.245222487323	154
95	12685	1.392614959053	154
95	13073	1.418293708499	154
95	13397	1.447118015593	154
95	13560	1.464130015593	154
95	13990	1.516089682029	154
95	14681	1.587545682029	154
95	14907	1.621798015593	154
95	15234	1.655879626181	154
95	15554	1.669649682029	154
95	16576	1.759625682029	154
96	9875	1.077150015593	154
96	10106	1.104789682029	154
96	10379	1.125071292617	154
96	11363	1.217934015593	154
96	11652	1.245222487323	154
96	12685	1.392614959053	154
96	13073	1.418293708499	154
96	13397	1.447118015593	154
96	13560	1.464130015593	154
96	13990	1.516089682029	154
96	14681	1.587545682029	154
96	14907	1.621798015593	154
96	15234	1.655879626181	154
96	15554	1.669649682029	154
96	16576	1.759625682029	154
97	9224	1.019327904589	14
97	9428	1.030765043447	14
97	9528	1.037429710575	14
97	9922	1.078051682721	14
97	10489	1.142827349157	14
97	10611	1.147231349157	14
97	10733	1.159912016285	14
97	10782	1.160404683413	14
97	10818	1.161101350541	14
97	10851	1.161298017669	14
97	10946	1.166991682721	14
97	12006	1.324983349157	14
97	12125	1.327992016285	14
97	12380	1.348901822271	14
97	12734	1.394256626181	14
97	13106	1.418639375627	14
97	13141	1.418816042755	14
97	13641	1.479151682721	14
97	13731	1.485956349849	14
97	14039	1.516775349157	14
97	14088	1.517688016285	14
97	14410	1.560043607445	14
97	15018	1.632363349157	14
97	15907	1.715087349157	14
97	16004	1.719116016285	14
97	16241	1.729453155143	14
98	9224	1.019327904589	14
98	9428	1.030765043447	14
98	9528	1.037429710575	14
98	9922	1.078051682721	14
98	10489	1.142827349157	14
98	10611	1.147231349157	14
98	10733	1.159912016285	14
98	10782	1.160404683413	14
98	10818	1.161101350541	14
98	10851	1.161298017669	14
98	10946	1.166991682721	14
98	12006	1.324983349157	14
98	12125	1.327992016285	14
98	12380	1.348901822271	14
98	12734	1.394256626181	14
98	13106	1.418639375627	14
98	13141	1.418816042755	14
98	13641	1.479151682721	14
98	13731	1.485956349849	14
98	14039	1.516775349157	14
98	14088	1.517688016285	14
98	14410	1.560043607445	14
98	15018	1.632363349157	14
98	15907	1.715087349157	14
98	16004	1.719116016285	14
98	16241	1.729453155143	14
99	9224	1.019327904589	14
99	9428	1.030765043447	14
99	9528	1.037429710575	14
99	9922	1.078051682721	14
99	10489	1.142827349157	14
99	10611	1.147231349157	14
99	10733	1.159912016285	14
99	10782	1.160404683413	14
99	10818	1.161101350541	14
99	10851	1.161298017669	14
99	10946	1.166991682721	14
99	12006	1.324983349157	14
99	12125	1.327992016285	14
99	12380	1.348901822271	14
99	12734	1.394256626181	14
99	13106	1.418639375627	14
99	13141	1.418816042755	14
99	13641	1.479151682721	14
99	13731	1.485956349849	14
99	14039	1.516775349157	14
99	14088	1.517688016285	14
99	14410	1.560043607445	14
99	15018	1.632363349157	14
99	15907	1.715087349157	14
99	16004	1.719116016285	14
99	16241	1.729453155143	14
100	9372	1.026010682029	154
100	9540	1.038122044139	154
100	9635	1.046266182305	154
100	10558	1.146010682029	154
100	10795	1.161057016977	154
100	10831	1.161253684105	154
100	10890	1.166010682029	154
100	10977	1.185570468587	154
100	11376	1.218595349157	154
100	11481	1.226010682029	154
100	11675	1.246010682029	154
100	11712	1.263567015593	154
100	11757	1.266010682029	154
100	11822	1.286010682029	154
100	12045	1.326131820887	154
100	12137	1.328164349849	154
100	12473	1.366010682029	154
100	13085	1.418595042063	154
100	13119	1.418771709191	154
100	13234	1.426010682029	154
100	13412	1.447419349157	154
100	13583	1.466010682029	154
100	13622	1.479107349157	154
100	13744	1.486268488015	154
100	14020	1.516731015593	154
100	14141	1.525570468587	154
100	14312	1.542542606753	154
100	14357	1.546010682029	154
100	14496	1.566010682029	154
100	14646	1.586010682029	154
100	14693	1.587767015593	154
100	14853	1.606010682029	154
100	14999	1.632319015593	154
100	15246	1.656460959745	154
100	15638	1.686010682029	154
100	15796	1.706010682029	154
100	16017	1.719808349849	154
100	16254	1.729585488707	154
100	16678	1.766010682029	154
101	10164	1.1	88000
101	11306	1.2	112000
101	11940	1.3	56000
101	12852	1.4	64000
101	14024	1.5	112000
101	14858	1.6	80000
101	15756	1.7	64000
102	9249	1.019999709191	154
103	14299	1.541981370888	154
103	16143	1.72626325215	154
104	14299	1.541981370888	154
104	16143	1.72626325215	154

